Circuit: * C:\Users\Burak\Desktop\EE463\EE463_HardwareProject-M.P.W.U-electronics-\Simulation Drafts\First Draft-Three Phase and Buck converter\First assumption.asc

Per .tran options, skipping operating point for transient analysis.
Changing Tseed to 1e-008
Changing Tseed to 1e-010
Heightened Def Con from 0.000501384 ++++++++++to 0.000501384
Heightened Def Con from 0.000501384 +++++++++++++++++++++++++++++++++++++++to 0.000501388
Heightened Def Con from 0.000501388 +to 0.000501394
Heightened Def Con from 0.000501394 +to 0.000501397
Heightened Def Con from 0.000501397 to 0.000501399
Heightened Def Con from 0.000501399 to 0.000501401
Heightened Def Con from 0.000501401 +to 0.000501404
Heightened Def Con from 0.000501658 ++++++++++++++++++++++++++++to 0.000501662
Heightened Def Con from 0.000501662 ++++++++++++++++++++++++++++++++++++++++to 0.000501673
Heightened Def Con from 0.000501673 to 0.00050168
Heightened Def Con from 0.00050195 +++++++++to 0.000501954
Heightened Def Con from 0.000501954 +++++to 0.000501958
Heightened Def Con from 0.000501958 ++++++to 0.000501958
Heightened Def Con from 0.000501958 ++to 0.000501959
Heightened Def Con from 0.00050196 +to 0.000501962
Heightened Def Con from 0.000501962 to 0.000501964
Heightened Def Con from 0.000501965 +to 0.000501966
Heightened Def Con from 0.000501966 ++++to 0.000501968
Heightened Def Con from 0.000501968 ++++++to 0.000501969
Heightened Def Con from 0.000501969 to 0.000501971
Heightened Def Con from 0.000501971 ++++++to 0.000501975
Heightened Def Con from 0.000501975 ++++to 0.00050198
Heightened Def Con from 0.000501982 to 0.000501983
Heightened Def Con from 0.000501983 ++to 0.000501985
Heightened Def Con from 0.000501986 ++++++++++++++to 0.00050199
Heightened Def Con from 0.00050199 ++++++++++++++++++to 0.000501998
Heightened Def Con from 0.000501998 +++++++++++++++++++to 0.000502004
Heightened Def Con from 0.000502004 +++++++++++++++++to 0.000502009
Heightened Def Con from 0.000502009 +++++++to 0.000502012
Heightened Def Con from 0.000502012 ++++++++++++++++to 0.000502018
Heightened Def Con from 0.000502018 +++++++++++++++++to 0.000502021
Heightened Def Con from 0.000502021 ++++++++++++++++++++++++++++++++++++to 0.000502032
Heightened Def Con from 0.000502032 ++++++to 0.000502039
Heightened Def Con from 0.000502175 to 0.000502176
Heightened Def Con from 0.000502176 +++++++++++++++++++++++++++++++++to 0.00050218
Heightened Def Con from 0.00050218 +++to 0.000502181
Heightened Def Con from 0.000502181 ++++++++++++++++++++++++++++++++++++++++to 0.000502188
Heightened Def Con from 0.000502188 to 0.00050219
Heightened Def Con from 0.00050219 to 0.000502194
Heightened Def Con from 0.000502539 to 0.000502539
Heightened Def Con from 0.000502539 +to 0.00050254
Heightened Def Con from 0.00050254 ++++++++++++++++++++++++++++++++++++++++to 0.000502547
Heightened Def Con from 0.000502547 to 0.000502553
Heightened Def Con from 0.000502882 +++++++++++++++++++to 0.000502884
Heightened Def Con from 0.000502884 ++++++++++++++++++++++++++++++to 0.000502886
Heightened Def Con from 0.000502886 +++++++++++++++++++++++++++++++++++++++to 0.000502892
Heightened Def Con from 0.000502892 +to 0.000502898
Heightened Def Con from 0.000503094 ++to 0.000503095
Heightened Def Con from 0.000503095 to 0.000503097
Heightened Def Con from 0.000503097 ++to 0.000503099
Heightened Def Con from 0.0005031 +to 0.0005031
Heightened Def Con from 0.0005031 ++to 0.000503101
Heightened Def Con from 0.000503101 +++++++++++++++++++to 0.000503108
Heightened Def Con from 0.000503114 to 0.000503115
Heightened Def Con from 0.000503115 to 0.000503117
Heightened Def Con from 0.000503117 ++++to 0.000503119
Heightened Def Con from 0.00050312 +++++++++++++to 0.000503127
Heightened Def Con from 0.000503127 +++++++to 0.000503129
Heightened Def Con from 0.000503129 ++to 0.000503129
Heightened Def Con from 0.000503129 +++++++++++++++++++++++++++++++++++++++to 0.000503139
Heightened Def Con from 0.000503139 ++++++++++++++++++++++++++++++++++++++++to 0.000503156
Heightened Def Con from 0.000503156 ++to 0.000503162
Heightened Def Con from 0.00050345 to 0.000503451
Heightened Def Con from 0.000503451 ++++++++to 0.000503451
Heightened Def Con from 0.000503451 ++to 0.000503451
Heightened Def Con from 0.000503451 ++to 0.000503452
Heightened Def Con from 0.000503452 +++to 0.000503454
Heightened Def Con from 0.000503454 +++++++to 0.000503458
Heightened Def Con from 0.000503458 +to 0.000503458
Heightened Def Con from 0.000503458 +++++++++++++++++++++++++to 0.000503462
Heightened Def Con from 0.000503462 +++to 0.000503466
Heightened Def Con from 0.000503467 ++to 0.000503467
Heightened Def Con from 0.000503467 ++++++++to 0.000503469
Heightened Def Con from 0.000503469 +to 0.00050347
Heightened Def Con from 0.00050347 +++++++++++++++++++to 0.000503474
Heightened Def Con from 0.000503474 ++++++to 0.000503477
Heightened Def Con from 0.000503477 +++++++++++++++++to 0.000503477
Heightened Def Con from 0.000503477 +++++++++++++to 0.000503478
Heightened Def Con from 0.000503478 to 0.00050348
Heightened Def Con from 0.00050348 ++++++++++++++++++++++++++++++++++++++++to 0.000503497
Heightened Def Con from 0.000503497 +to 0.000503504
Heightened Def Con from 0.000503831 +++++++++++to 0.000503834
Heightened Def Con from 0.000503834 +++++++to 0.000503836
Heightened Def Con from 0.000503836 to 0.000503836
Heightened Def Con from 0.000503836 +++++to 0.000503839
Heightened Def Con from 0.000503839 ++++++++++++++++++++++++++++++++++++++to 0.000503849
Heightened Def Con from 0.000503849 +++++to 0.000503852
Heightened Def Con from 0.000503852 +++++to 0.000503857
Heightened Def Con from 0.000503977 ++++++++to 0.000503978
Heightened Def Con from 0.000503978 ++++++++++++++++++to 0.000503983
Heightened Def Con from 0.000503983 ++++++++++++++++++++++++++++++++++++++to 0.000503993
Heightened Def Con from 0.000503993 +to 0.000503995
Heightened Def Con from 0.000503995 ++to 0.000503998
Heightened Def Con from 0.000504 to 0.000504001
Heightened Def Con from 0.000504001 to 0.000504003
Heightened Def Con from 0.000504003 to 0.000504005
Heightened Def Con from 0.000504006 to 0.000504008
Heightened Def Con from 0.000504129 ++++++to 0.000504131
Heightened Def Con from 0.000504131 +++++++++++++++++++++++++++++++++++++++to 0.000504143
Heightened Def Con from 0.000504143 ++to 0.000504149
Heightened Def Con from 0.000504412 to 0.000504412
Heightened Def Con from 0.000504412 +++++++++++++++++++++++++++++++++++++++to 0.000504416
Heightened Def Con from 0.000504416 +to 0.000504422
Heightened Def Con from 0.000504615 +++++++++++++++++to 0.000504616
Heightened Def Con from 0.000504616 +++++++++++to 0.000504617
Heightened Def Con from 0.000504617 ++++to 0.000504617
Heightened Def Con from 0.000504617 ++++++++++++++++++++++++++++++++++++++++to 0.000504627
Heightened Def Con from 0.000504627 +to 0.000504633
Heightened Def Con from 0.000504906 +++++++++to 0.000504908
Heightened Def Con from 0.000504908 ++++++++++to 0.000504909
Heightened Def Con from 0.000504909 ++++++++++++++++++++++++++++++++++++++++to 0.00050492
Heightened Def Con from 0.00050492 to 0.000504926
Heightened Def Con from 0.000505152 to 0.000505153
Heightened Def Con from 0.000505153 +++to 0.000505156
Heightened Def Con from 0.000505158 to 0.000505158
Heightened Def Con from 0.000505158 +++++to 0.000505163
Heightened Def Con from 0.000505224 to 0.000505225
Heightened Def Con from 0.000505225 +++++++++++++++++to 0.000505226
Heightened Def Con from 0.000505226 +++++++++++++++++++++++++++++++++++++++to 0.00050523
Heightened Def Con from 0.00050523 to 0.000505236
Heightened Def Con from 0.00050543 +++++++to 0.000505432
Heightened Def Con from 0.000505432 +++++++++++++++++++++++++++++++++++++++to 0.000505438
Heightened Def Con from 0.000505438 +++to 0.000505443
Heightened Def Con from 0.000505563 to 0.000505564
Heightened Def Con from 0.000505564 +++++++++++++++++++++++++++++++++++++++to 0.000505569
Heightened Def Con from 0.000505569 +to 0.000505575
Heightened Def Con from 0.000505769 to 0.00050577
Heightened Def Con from 0.00050577 +++++++++++++++++++++++++++++++++++++++++to 0.000505786
Heightened Def Con from 0.000505786 +to 0.000505792
Heightened Def Con from 0.000506134 ++++++++++++++++++to 0.000506137
Heightened Def Con from 0.000506137 +++++++++++++++++++++++++++++++++++++++++to 0.000506145
Heightened Def Con from 0.000506145 +to 0.000506152
Heightened Def Con from 0.000506472 ++++to 0.000506472
Heightened Def Con from 0.000506472 ++++++++++++++++to 0.000506475
Heightened Def Con from 0.000506475 ++++++++++++++++++++to 0.000506478
Heightened Def Con from 0.000506478 +++++++++++++++to 0.000506482
Heightened Def Con from 0.000506482 +++++++++++++++++++to 0.000506485
Heightened Def Con from 0.000506485 ++++++++++++++++++++++++++++++++++++++++to 0.000506495
Heightened Def Con from 0.000506495 +to 0.000506502
Heightened Def Con from 0.00050673 ++++++to 0.000506733
Heightened Def Con from 0.000506733 ++++++++++to 0.000506737
Heightened Def Con from 0.000506737 to 0.000506737
Heightened Def Con from 0.000506737 ++to 0.000506739
Heightened Def Con from 0.000506739 +++to 0.000506739
Heightened Def Con from 0.000506739 +to 0.000506739
Heightened Def Con from 0.000506739 +++++++++to 0.000506741
Heightened Def Con from 0.000506741 +to 0.000506743
Heightened Def Con from 0.000506743 ++++++++++++++++to 0.000506747
Heightened Def Con from 0.000506748 +to 0.000506748
Heightened Def Con from 0.000506748 +to 0.00050675
Heightened Def Con from 0.00050675 +++++++++++++++++++++to 0.000506755
Heightened Def Con from 0.000506755 +++to 0.000506755
Heightened Def Con from 0.000506755 +++++++++++++to 0.000506756
Heightened Def Con from 0.000506756 ++++to 0.000506756
Heightened Def Con from 0.000506756 +++++to 0.000506758
Heightened Def Con from 0.000506761 to 0.000506762
Heightened Def Con from 0.000506762 ++++++++++++++++to 0.000506764
Heightened Def Con from 0.000506764 +++to 0.000506764
Heightened Def Con from 0.000506764 +++++++++++++++++++++++++++++++++++++++++to 0.000506769
Heightened Def Con from 0.000506769 +to 0.000506777
Heightened Def Con from 0.000507074 ++++++++++++++++++++++++++++++++++++++++to 0.000507082
Heightened Def Con from 0.000507082 +to 0.000507091
Heightened Def Con from 0.000507321 +++++++++++++to 0.000507326
Heightened Def Con from 0.000507326 ++++++++++++++++++++++++++++++++++++++++to 0.000507335
Heightened Def Con from 0.000507335 +to 0.000507345
Heightened Def Con from 0.000507597 +++++++++++++++++++++++++++++++++++++++++to 0.000507601
Heightened Def Con from 0.000507601 +to 0.000507606
Heightened Def Con from 0.000507608 to 0.00050761
Heightened Def Con from 0.000507893 ++++++++++++++++++++++++++++++++++++++++to 0.0005079
Heightened Def Con from 0.0005079 +to 0.000507904
Heightened Def Con from 0.000507906 to 0.000507911
Heightened Def Con from 0.000508124 +++++++to 0.000508125
Heightened Def Con from 0.000508125 +to 0.000508126
Heightened Def Con from 0.000508126 ++++++++to 0.000508129
Heightened Def Con from 0.000508129 ++++++++++++++to 0.00050813
Heightened Def Con from 0.00050813 ++++++++++++++++++++++++++++++++++++++++++to 0.000508136
Heightened Def Con from 0.000508136 +to 0.000508141
Heightened Def Con from 0.000508466 +++++++++++++++++++++++++++++++++++++++++to 0.000508475
Heightened Def Con from 0.000508475 +to 0.00050848
Heightened Def Con from 0.000508736 ++++++++to 0.000508736
Heightened Def Con from 0.000508736 +++to 0.000508737
Heightened Def Con from 0.000508737 to 0.000508737
Heightened Def Con from 0.000508737 ++++++++++++to 0.000508741
Heightened Def Con from 0.000508741 +++++++++++++++++++++++++++++++++++++++++to 0.000508752
Heightened Def Con from 0.000508752 +to 0.000508757
Heightened Def Con from 0.000508996 to 0.000508997
Heightened Def Con from 0.000508997 ++++++++++++++++++++++++++++++++++++++++to 0.000509012
Heightened Def Con from 0.000509012 +to 0.000509018
Heightened Def Con from 0.000509529 +++++++++++++++++++++++++to 0.000509542
Heightened Def Con from 0.000509542 +to 0.000509546
Heightened Def Con from 0.000509546 +++to 0.00050955
Heightened Def Con from 0.00050955 +to 0.000509552
Heightened Def Con from 0.000509552 to 0.000509554
Heightened Def Con from 0.000509929 +++++++++++++++++++++++++++to 0.000509946
Heightened Def Con from 0.000509946 +to 0.00050995
Heightened Def Con from 0.000509957 to 0.000509958
Heightened Def Con from 0.000509958 ++++to 0.000509963
Heightened Def Con from 0.000510225 +++++++++++++to 0.000510225
Heightened Def Con from 0.000510225 ++++++++++++to 0.000510226
Heightened Def Con from 0.000510226 ++++++++++++++++++++++++++++++to 0.000510233
Heightened Def Con from 0.000510233 +++to 0.000510239
Heightened Def Con from 0.00051024 +++to 0.000510244
Heightened Def Con from 0.000510244 to 0.000510246
Heightened Def Con from 0.000510247 to 0.000510248
Heightened Def Con from 0.000510248 +++to 0.000510252
Heightened Def Con from 0.000510253 +++++to 0.000510255
Heightened Def Con from 0.000510255 ++to 0.000510257
Heightened Def Con from 0.000510572 ++++++++++++++++++++++to 0.000510579
Heightened Def Con from 0.000510579 ++++to 0.000510586
Heightened Def Con from 0.000510587 ++++to 0.00051059
Heightened Def Con from 0.000510591 +++++++++++++++++++++to 0.000510598
Heightened Def Con from 0.000510598 ++++to 0.000510601
Heightened Def Con from 0.000510601 ++to 0.000510603
Heightened Def Con from 0.000510604 ++++to 0.000510606
Heightened Def Con from 0.000510606 +to 0.000510609
Heightened Def Con from 0.000510609 ++to 0.000510609
Heightened Def Con from 0.000510609 +++to 0.00051061
Heightened Def Con from 0.00051061 +++to 0.000510612
Heightened Def Con from 0.000510612 +++++++to 0.000510617
Heightened Def Con from 0.00051062 ++to 0.000510623
Heightened Def Con from 0.000510623 ++to 0.000510625
Heightened Def Con from 0.000510625 ++to 0.000510627
Heightened Def Con from 0.000510627 ++++++++++++++++to 0.000510628
Heightened Def Con from 0.000510628 ++++++++++++++++++++++to 0.000510632
Heightened Def Con from 0.000510632 +++++++++++++++++++++to 0.000510636
Heightened Def Con from 0.000510636 +to 0.000510637
Heightened Def Con from 0.000510637 ++++++++++++to 0.000510643
Heightened Def Con from 0.000510644 +++++++++++++++to 0.000510647
Heightened Def Con from 0.000510647 +++++++++++++++++++++++++++to 0.000510664
Heightened Def Con from 0.000510664 ++to 0.000510668
Heightened Def Con from 0.000510668 ++++to 0.000510671
Heightened Def Con from 0.000510671 +to 0.000510673
Heightened Def Con from 0.000510673 to 0.000510675
Heightened Def Con from 0.00100014 ++++++++++++++++++++++++++++++++++++++++++to 0.00100015
Heightened Def Con from 0.00100015 +++++++++++++++++++++++++++++++++to 0.00100015
Heightened Def Con from 0.00100015 ++++++++++++++++++++++++to 0.00100016
Heightened Def Con from 0.00100016 ++++++++++++++to 0.00100016
Heightened Def Con from 0.00100016 +++++to 0.00100016
Heightened Def Con from 0.00100016 to 0.00100016
Heightened Def Con from 0.00100061 +++++++++++++++++++++++++++++++to 0.00100061
Heightened Def Con from 0.00100061 +++++++++++++++++++++++++++++++++++++++++to 0.00100062
Heightened Def Con from 0.00100062 +++++++++++++++++++++++++++++++to 0.00100062
Heightened Def Con from 0.00100062 +++++++++++++++++++++to 0.00100063
Heightened Def Con from 0.00100063 ++++++++++++to 0.00100063
Heightened Def Con from 0.00100063 +++to 0.00100063
Heightened Def Con from 0.00100098 ++++++++++++++++++++++++++++++++++++++++++to 0.00100098
Heightened Def Con from 0.00100098 +++++++++++++++++++++++++++++++++to 0.00100099
Heightened Def Con from 0.00100099 +++++++++++++++++++++++to 0.001001
Heightened Def Con from 0.001001 +++++++++++++to 0.001001
Heightened Def Con from 0.001001 +++to 0.001001
Heightened Def Con from 0.001001 to 0.001001
Heightened Def Con from 0.00100137 ++++++++++++++++++to 0.00100137
Heightened Def Con from 0.00100137 +++++++++++++++++++++++++++++++++++++++++to 0.00100138
Heightened Def Con from 0.00100138 +++++++++++++++++++++++++++++++to 0.00100139
Heightened Def Con from 0.00100139 +++++++++++++++++++++to 0.00100139
Heightened Def Con from 0.00100139 ++++++++++++to 0.0010014
Heightened Def Con from 0.0010014 +++to 0.0010014
Heightened Def Con from 0.00100166 to 0.00100166
Heightened Def Con from 0.00100166 to 0.00100166
Heightened Def Con from 0.00100166 +to 0.00100166
Heightened Def Con from 0.00100166 +++++++++++++++++++to 0.00100166
Heightened Def Con from 0.00100166 ++++++++++++++to 0.00100167
Heightened Def Con from 0.00100167 ++++++to 0.00100167
Heightened Def Con from 0.00100167 ++++++to 0.00100167
Heightened Def Con from 0.00100167 to 0.00100167
Heightened Def Con from 0.00100167 ++++++++++++++++++++++++++++++++++++++++++to 0.00100168
Heightened Def Con from 0.00100168 ++++++++++++++++++++++++++++++++to 0.00100169
Heightened Def Con from 0.00100169 ++++++++++++++++++++++to 0.00100169
Heightened Def Con from 0.00100169 ++++++++++++to 0.00100169
Heightened Def Con from 0.00100169 ++to 0.00100169
Heightened Def Con from 0.00100169 to 0.0010017
Heightened Def Con from 0.00100204 +++++++++++++++++++++++++++++++++++++++++to 0.00100204
Heightened Def Con from 0.00100204 +++++++++++++++++++++++++++++++++to 0.00100204
Heightened Def Con from 0.00100204 +++++++++++++++++++++++++to 0.00100205
Heightened Def Con from 0.00100205 ++++++++++++++++to 0.00100205
Heightened Def Con from 0.00100205 +++++++to 0.00100205
Heightened Def Con from 0.00100205 +++to 0.00100206
Heightened Def Con from 0.00100206 to 0.00100206
Heightened Def Con from 0.00100224 +++++++++++++++++++++++++++++++++++++++++to 0.00100225
Heightened Def Con from 0.00100225 +++++++++++++++++++++++++++++++++to 0.00100225
Heightened Def Con from 0.00100225 +++++++++++++++++++++++to 0.00100226
Heightened Def Con from 0.00100226 +++++++++++++to 0.00100226
Heightened Def Con from 0.00100226 +++to 0.00100226
Heightened Def Con from 0.00100226 to 0.00100226
Heightened Def Con from 0.00100255 +++++++++++++++++++++++++++++++++++++++++++to 0.00100255
Heightened Def Con from 0.00100255 +++++++++++++++++++++++++++++++++to 0.00100256
Heightened Def Con from 0.00100256 +++++++++++++++++++++++to 0.00100256
Heightened Def Con from 0.00100256 +++++++++++++to 0.00100256
Heightened Def Con from 0.00100256 +++to 0.00100256
Heightened Def Con from 0.00100256 to 0.00100257
Heightened Def Con from 0.00100282 +++++++++++++++++++++to 0.00100282
Heightened Def Con from 0.00100282 ++++++++++++++++to 0.00100282
Heightened Def Con from 0.00100282 +++++++++++++++++to 0.00100283
Heightened Def Con from 0.00100283 +++++++++++++++++++to 0.00100283
Heightened Def Con from 0.00100283 ++++++++++to 0.00100283
Heightened Def Con from 0.00100283 +++++++++++++++++++++++++++++++++++++++++to 0.00100284
Heightened Def Con from 0.00100284 ++++++++++++++++++++++++++++++++to 0.00100284
Heightened Def Con from 0.00100284 ++++++++++++++++++++++to 0.00100285
Heightened Def Con from 0.00100285 ++++++++++++to 0.00100285
Heightened Def Con from 0.00100285 ++to 0.00100285
Heightened Def Con from 0.00100285 to 0.00100285
Heightened Def Con from 0.00100313 ++++++++++++++++++++++++++++++++to 0.00100313
Heightened Def Con from 0.00100313 ++++++++++++++++++++++to 0.00100314
Heightened Def Con from 0.00100314 +++++++++++++++++++++++++++++++++++++++++to 0.00100315
Heightened Def Con from 0.00100315 ++++++++++++++++++++++++++++++++to 0.00100315
Heightened Def Con from 0.00100315 ++++++++++++++++++++++to 0.00100315
Heightened Def Con from 0.00100315 ++++++++++++to 0.00100315
Heightened Def Con from 0.00100315 ++to 0.00100316
Heightened Def Con from 0.00100316 to 0.00100316
Heightened Def Con from 0.00100338 ++++++++++++++++++++++to 0.00100339
Heightened Def Con from 0.00100339 ++++++++++++++++++++++to 0.00100339
Heightened Def Con from 0.00100339 ++++++++++++++++++++++to 0.00100339
Heightened Def Con from 0.00100339 +++++++++++++++++to 0.0010034
Heightened Def Con from 0.0010034 +++++++++++to 0.0010034
Heightened Def Con from 0.0010034 ++++++to 0.0010034
Heightened Def Con from 0.0010034 ++to 0.0010034
Heightened Def Con from 0.0010034 ++++to 0.0010034
Heightened Def Con from 0.0010034 ++++to 0.0010034
Heightened Def Con from 0.0010034 ++to 0.00100341
Heightened Def Con from 0.00100341 +++to 0.00100341
Heightened Def Con from 0.00100341 +++to 0.00100341
Heightened Def Con from 0.00100341 +++to 0.00100341
Heightened Def Con from 0.00100341 ++++++++++++++++++++++++++++++++++++++++++to 0.00100342
Heightened Def Con from 0.00100342 +++++++++++++++++++++++++++++++++to 0.00100343
Heightened Def Con from 0.00100343 +++++++++++++++++++++++to 0.00100343
Heightened Def Con from 0.00100343 +++++++++++++to 0.00100343
Heightened Def Con from 0.00100343 +++to 0.00100343
Heightened Def Con from 0.00100374 +++++++++++++++++++++++++++++++++++++++++to 0.00100374
Heightened Def Con from 0.00100374 ++++++++++++++++++++++++++++++++to 0.00100375
Heightened Def Con from 0.00100375 +++++++++++++++++++++++to 0.00100376
Heightened Def Con from 0.00100376 +++++++++++++to 0.00100376
Heightened Def Con from 0.00100376 +++to 0.00100376
Heightened Def Con from 0.00100376 to 0.00100376
Heightened Def Con from 0.00100398 ++++++++++++++++++++++++++++++++++++++++++to 0.00100399
Heightened Def Con from 0.00100399 ++++++++++++++++++++++++++++++++to 0.001004
Heightened Def Con from 0.001004 ++++++++++++++++++++++to 0.001004
Heightened Def Con from 0.001004 ++++++++++++to 0.001004
Heightened Def Con from 0.001004 ++to 0.001004
Heightened Def Con from 0.00100437 ++to 0.00100437
Heightened Def Con from 0.00100437 +++++++++++++++++++++++++++++++++++++to 0.00100437
Heightened Def Con from 0.00100437 ++++++++++++++++++++++++++++++++++++to 0.00100438
Heightened Def Con from 0.00100438 ++++++++++++++++++++++++++++++++++++++to 0.00100439
Heightened Def Con from 0.00100439 ++++++++++++++++++++++++++++++++to 0.00100439
Heightened Def Con from 0.00100439 ++++++++++++++++++++++to 0.00100439
Heightened Def Con from 0.00100439 ++++++++++++++++++to 0.0010044
Heightened Def Con from 0.0010044 ++++++++++++to 0.0010044
Heightened Def Con from 0.0010044 +++++++++++++++++++++++++to 0.00100441
Heightened Def Con from 0.00100441 +++++++++++++++++to 0.00100441
Heightened Def Con from 0.00100441 ++++++++++++to 0.00100441
Heightened Def Con from 0.00100441 ++++++++++++++++++to 0.00100442
Heightened Def Con from 0.00100442 +++++++++++++to 0.00100442
Heightened Def Con from 0.00100442 ++++++++++++++++++++++to 0.00100442
Heightened Def Con from 0.00100442 +++++++++++++++++++++++to 0.00100443
Heightened Def Con from 0.00100443 +++++++++++++++++to 0.00100443
Heightened Def Con from 0.00100443 ++++++++to 0.00100443
Heightened Def Con from 0.00100443 +++to 0.00100443
Heightened Def Con from 0.00100443 ++++++++++++++++++++++++++++++++++++++++++to 0.00100444
Heightened Def Con from 0.00100444 ++++++++++++++++++++++++++++++++to 0.00100445
Heightened Def Con from 0.00100445 ++++++++++++++++++++++to 0.00100445
Heightened Def Con from 0.00100445 +++++++++++++to 0.00100445
Heightened Def Con from 0.00100445 +++to 0.00100445
Heightened Def Con from 0.00200033 +++++++++++++++++++++++++++++++++++++++++++to 0.00200034
Heightened Def Con from 0.00200034 +++++++++++++++++++++++++++++++++to 0.00200034
Heightened Def Con from 0.00200034 +++++++++++++++++++++++to 0.00200034
Heightened Def Con from 0.00200034 +++++++++++++to 0.00200034
Heightened Def Con from 0.00200034 ++++to 0.00200035
Heightened Def Con from 0.00200083 ++++++++++++++++++++++++++++++++++++++++++to 0.00200084
Heightened Def Con from 0.00200084 ++++++++++++++++++++++++++++++++to 0.00200084
Heightened Def Con from 0.00200084 ++++++++++++++++++++++to 0.00200085
Heightened Def Con from 0.00200085 ++++++++++++to 0.00200085
Heightened Def Con from 0.00200085 ++to 0.00200085
Heightened Def Con from 0.00200085 to 0.00200085
Heightened Def Con from 0.00200122 to 0.00200123
Heightened Def Con from 0.00200123 ++++++++++++++++++++++++++++++to 0.00200123
Heightened Def Con from 0.00200123 +++++++++++++++++++++++++++++++++++++to 0.00200123
Heightened Def Con from 0.00200123 ++++++++++++++++++++++++++++++++++++to 0.00200124
Heightened Def Con from 0.00200124 ++++++++++++++++++++++++++++++++to 0.00200124
Heightened Def Con from 0.00200124 +++++++++++++++++++++++++++++++++++++++++to 0.00200125
Heightened Def Con from 0.00200125 ++++++++++++++++++++++++++++++++to 0.00200126
Heightened Def Con from 0.00200126 ++++++++++++++++++++++to 0.00200126
Heightened Def Con from 0.00200126 ++++++++++++to 0.00200126
Heightened Def Con from 0.00200126 ++to 0.00200126
Heightened Def Con from 0.00200127 to 0.00200127
Heightened Def Con from 0.00200157 ++++++++++++++++++++++++++++++++++++++++++to 0.00200157
Heightened Def Con from 0.00200157 ++++++++++++++++++++++++++++++++to 0.00200158
Heightened Def Con from 0.00200158 ++++++++++++++++++++++to 0.00200158
Heightened Def Con from 0.00200158 +++++++++++++to 0.00200158
Heightened Def Con from 0.00200158 ++++to 0.00200159
Heightened Def Con from 0.00200192 +++++++++++++++++++++++++++++++++++++++to 0.00200192
Heightened Def Con from 0.00200192 ++++++++++++++++++++++++++++++to 0.00200193
Heightened Def Con from 0.00200193 +++++++++++++++++++++++to 0.00200194
Heightened Def Con from 0.00200194 ++++++++++++++++to 0.00200194
Heightened Def Con from 0.00200194 ++++++++++to 0.00200194
Heightened Def Con from 0.00200194 +to 0.00200194
Heightened Def Con from 0.00200194 to 0.00200194
Heightened Def Con from 0.00200212 +++++++++++++++++++++++++++++++++++++++++++to 0.00200213
Heightened Def Con from 0.00200213 +++++++++++++++++++++++++++++++++to 0.00200214
Heightened Def Con from 0.00200214 +++++++++++++++++++++++to 0.00200214
Heightened Def Con from 0.00200214 +++++++++++++to 0.00200214
Heightened Def Con from 0.00200214 +++to 0.00200214
Heightened Def Con from 0.00200253 ++++++++++++++++++++++++++++++++++++++to 0.00200254
Heightened Def Con from 0.00200254 ++++++++++++++++++++++++++++++++++++++++++to 0.00200255
Heightened Def Con from 0.00200255 ++++++++++++++++++++++++++++++++to 0.00200255
Heightened Def Con from 0.00200255 ++++++++++++++++++++++to 0.00200256
Heightened Def Con from 0.00200256 ++++++++++++to 0.00200256
Heightened Def Con from 0.00200256 ++to 0.00200256
Heightened Def Con from 0.00200256 to 0.00200256
Heightened Def Con from 0.00200288 ++++++++++++++++++++++++++++++++++++++to 0.00200288
Heightened Def Con from 0.00200288 ++++++++++++++++++++++++++++++++++++to 0.00200288
Heightened Def Con from 0.00200288 +++++++++++++++++++++++++++++++++++++to 0.00200289
Heightened Def Con from 0.00200289 +++++++++++++++++++++++++++++++++++++to 0.0020029
Heightened Def Con from 0.0020029 ++++++++++++++++++++++++++++++to 0.0020029
Heightened Def Con from 0.0020029 +++++++++++++++++++++++to 0.00200291
Heightened Def Con from 0.00200291 ++++++++++++++++to 0.00200291
Heightened Def Con from 0.00200291 ++++++++to 0.00200291
Heightened Def Con from 0.00200291 ++++++to 0.00200292
Heightened Def Con from 0.00200292 ++++to 0.00200292
Heightened Def Con from 0.00200292 +++to 0.00200292
Heightened Def Con from 0.00200292 to 0.00200292
Heightened Def Con from 0.00200292 to 0.00200293
Heightened Def Con from 0.00200293 +to 0.00200293
Heightened Def Con from 0.00200293 to 0.00200293
Heightened Def Con from 0.00200293 ++++++++++++++++++++++++++++++to 0.00200293
Heightened Def Con from 0.00200293 +++++++++++++++++++++++++++++++++++++++++to 0.00200294
Heightened Def Con from 0.00200294 +++++++++++++++++++++++++++++++to 0.00200295
Heightened Def Con from 0.00200295 +++++++++++++++++++++to 0.00200295
Heightened Def Con from 0.00200295 +++++++++++to 0.00200295
Heightened Def Con from 0.00200295 ++to 0.00200295
Heightened Def Con from 0.00200295 to 0.00200296
Heightened Def Con from 0.0020032 +to 0.0020032
Heightened Def Con from 0.0020032 +++to 0.0020032
Heightened Def Con from 0.0020032 ++++++++++++++++++++++++++++++++++++++to 0.0020032
Heightened Def Con from 0.0020032 ++++++++++++++++++++++++++++++++++++to 0.00200321
Heightened Def Con from 0.00200321 ++++++++++++++++++++++++++++++++++to 0.00200321
Heightened Def Con from 0.00200321 +++++++++++++++++++++++++to 0.00200321
Heightened Def Con from 0.00200321 ++++++++++++++++++to 0.00200322
Heightened Def Con from 0.00200322 ++++++++++to 0.00200322
Heightened Def Con from 0.00200322 +++to 0.00200322
Heightened Def Con from 0.00200322 +to 0.00200323
Heightened Def Con from 0.00200323 +to 0.00200323
Heightened Def Con from 0.00200323 to 0.00200323
Heightened Def Con from 0.00200323 ++to 0.00200323
Heightened Def Con from 0.00200323 to 0.00200324
Heightened Def Con from 0.00200324 +to 0.00200324
Heightened Def Con from 0.00200324 ++++to 0.00200324
Heightened Def Con from 0.00200324 ++to 0.00200324
Heightened Def Con from 0.00200325 +to 0.00200325
Heightened Def Con from 0.00200325 +++to 0.00200325
Heightened Def Con from 0.00200325 +++++++++++++++++++to 0.00200326
Heightened Def Con from 0.00200326 ++++++++++++++++++to 0.00200326
Heightened Def Con from 0.00200326 ++++++++++++++++++++++++++++++++++++++++to 0.00200327
Heightened Def Con from 0.00200327 +++++++++++++++++++++++++++++++to 0.00200327
Heightened Def Con from 0.00200327 +++++++++++++++++++++to 0.00200328
Heightened Def Con from 0.00200328 ++++++++++++to 0.00200328
Heightened Def Con from 0.00200328 +++to 0.00200328
Heightened Def Con from 0.00200328 to 0.00200329
Heightened Def Con from 0.00200344 ++++++++++++++++++++++++++++++++++++++to 0.00200344
Heightened Def Con from 0.00200344 ++++++++++++++++++++++++++++++++++to 0.00200345
Heightened Def Con from 0.00200345 +++++++++++++++++++++++++to 0.00200345
Heightened Def Con from 0.00200345 +++++++++++++++++++to 0.00200346
Heightened Def Con from 0.00200346 +++++++++++++to 0.00200346
Heightened Def Con from 0.00200346 +++++++++++++to 0.00200346
Heightened Def Con from 0.00200346 +++to 0.00200346
Heightened Def Con from 0.00200346 to 0.00200347
Heightened Def Con from 0.00200347 to 0.00200347
Heightened Def Con from 0.00200354 ++++++++++++++++++++++++++++++++++++++to 0.00200355
Heightened Def Con from 0.00200355 +++++++++++++++++++++++++++++++to 0.00200356
Heightened Def Con from 0.00200356 ++++++++++++++++++++++++++++++++++to 0.00200356
Heightened Def Con from 0.00200356 ++++++++++++++++++++++++++to 0.00200357
Heightened Def Con from 0.00200357 ++++++++++++++++++++++++++++++++++++++to 0.00200358
Heightened Def Con from 0.00200358 ++++++++++++++++++++++++++++to 0.00200358
Heightened Def Con from 0.00200358 ++++++++++++++++++++to 0.00200358
Heightened Def Con from 0.00200358 +++++++++++++++to 0.00200359
Heightened Def Con from 0.00200359 +++++++to 0.00200359
Heightened Def Con from 0.00200359 +to 0.00200359
Heightened Def Con from 0.00200359 to 0.0020036
Heightened Def Con from 0.00200369 +++++++++++++++++++++++++++++to 0.00200369
Heightened Def Con from 0.00200369 ++++++++++++++++++++++++++++++++++++++to 0.0020037
Heightened Def Con from 0.0020037 ++++++++++++++++++++++++++++++++++to 0.0020037
Heightened Def Con from 0.0020037 +++++++++++++++++++++++++++++++to 0.00200371
Heightened Def Con from 0.00200371 ++++++++++++++++++++++++to 0.00200371
Heightened Def Con from 0.00200371 ++++++++++++++++++to 0.00200372
Heightened Def Con from 0.00200372 +++++++++++to 0.00200372
Heightened Def Con from 0.00200372 to 0.00200372
Heightened Def Con from 0.00200372 +to 0.00200372
Heightened Def Con from 0.00200372 to 0.00200372
Heightened Def Con from 0.00200372 ++to 0.00200372
Heightened Def Con from 0.00200373 to 0.00200373
Heightened Def Con from 0.00200373 to 0.00200373
Heightened Def Con from 0.00200378 to 0.00200378
Heightened Def Con from 0.00200378 ++++++++++++++++++++++++++++++++++++to 0.00200379
Heightened Def Con from 0.00200379 +++++++++++++++++++++++++++++++++++++++to 0.0020038
Heightened Def Con from 0.0020038 +++++++++++++++++++++++++++++++to 0.0020038
Heightened Def Con from 0.0020038 +++++++++++++++++++++++to 0.00200381
Heightened Def Con from 0.00200381 ++++++++++++++to 0.00200381
Heightened Def Con from 0.00200381 +++++to 0.00200381
Heightened Def Con from 0.00200381 ++to 0.00200381
Heightened Def Con from 0.00200381 to 0.00200382
Heightened Def Con from 0.00200382 to 0.00200382
Heightened Def Con from 0.00200382 to 0.00200382
Heightened Def Con from 0.00200382 to 0.00200382
Heightened Def Con from 0.00200391 ++++++++++++++++++++++++++++++++++++++to 0.00200392
Heightened Def Con from 0.00200392 +++++++++++++++++++++++++++++++++++++++++++to 0.00200393
Heightened Def Con from 0.00200393 +++++++++++++++++++++++++++++++++to 0.00200394
Heightened Def Con from 0.00200394 +++++++++++++++++++++++to 0.00200394
Heightened Def Con from 0.00200394 +++++++++++++to 0.00200395
Heightened Def Con from 0.00200395 +++to 0.00200395
Heightened Def Con from 0.00200395 to 0.00200395
Heightened Def Con from 0.00200429 +++++++++++++++++++++++++++++++++++++to 0.0020043
Heightened Def Con from 0.0020043 ++++++++++++++++++++++++++++++++++++++++++to 0.00200431
Heightened Def Con from 0.00200431 ++++++++++++++++++++++++++++++++to 0.00200432
Heightened Def Con from 0.00200432 ++++++++++++++++++++++to 0.00200432
Heightened Def Con from 0.00200432 ++++++++++++to 0.00200432
Heightened Def Con from 0.00200432 ++to 0.00200432
Heightened Def Con from 0.00235093 ++++++++++++++++++++to 0.00235093
Heightened Def Con from 0.00235093 +++++++++++++++++++++++++++++++++++++++to 0.00235094
Heightened Def Con from 0.00235094 +++++++++++++++++++++++++++++++to 0.00235094
Heightened Def Con from 0.00235094 +++++++++++++++++++++++to 0.00235095
Heightened Def Con from 0.00235095 +++++++++++++++++++to 0.00235095
Heightened Def Con from 0.00235095 ++++++++++++++to 0.00235095
Heightened Def Con from 0.00235095 +++++++++to 0.00235096
Heightened Def Con from 0.00235096 +to 0.00235096
Heightened Def Con from 0.00235096 to 0.00235096
Heightened Def Con from 0.00235096 to 0.00235096
Heightened Def Con from 0.0023512 +++++++++++++++++++++++++to 0.0023512
Heightened Def Con from 0.0023512 +++++++++++++++++++++++++++++++++++++++to 0.00235121
Heightened Def Con from 0.00235121 ++++++++++++++++++++++++++++++to 0.00235122
Heightened Def Con from 0.00235122 ++++++++++++++++++++++to 0.00235122
Heightened Def Con from 0.00235122 ++++++++++++++to 0.00235122
Heightened Def Con from 0.00235122 ++++++++to 0.00235122
Heightened Def Con from 0.00235122 +to 0.00235123
Heightened Def Con from 0.00235123 to 0.00235123
Heightened Def Con from 0.00235141 to 0.00235141
Heightened Def Con from 0.00235141 +++++++++++++++++++++++++++++++++++++++++to 0.00235142
Heightened Def Con from 0.00235142 +++++++++++++++++++++++++++++++to 0.00235142
Heightened Def Con from 0.00235142 +++++++++++++++++++++to 0.00235143
Heightened Def Con from 0.00235143 ++++++++++++to 0.00235143
Heightened Def Con from 0.00235143 +++to 0.00235143
Heightened Def Con from 0.00235175 ++++++++++++++++++++++++++++++++++++++++to 0.00235176
Heightened Def Con from 0.00235176 ++++++++++++++++++++++++++++++to 0.00235176
Heightened Def Con from 0.00235176 +++++++++++++++++++++to 0.00235177
Heightened Def Con from 0.00235177 +++++++++++++to 0.00235177
Heightened Def Con from 0.00235177 ++++to 0.00235177
Heightened Def Con from 0.00235177 to 0.00235177
Heightened Def Con from 0.002352 +++++++++++++++++++++++++++++++++++++++++to 0.00235201
Heightened Def Con from 0.00235201 ++++++++++++++++++++++++++++++++to 0.00235201
Heightened Def Con from 0.00235201 ++++++++++++++++++++++to 0.00235202
Heightened Def Con from 0.00235202 ++++++++++++to 0.00235202
Heightened Def Con from 0.00235202 +++to 0.00235202
Heightened Def Con from 0.00235229 ++++++++++++++++++++++++++++++++++++++to 0.0023523
Heightened Def Con from 0.0023523 +++++++++++++++++++++++++++++++++++to 0.0023523
Heightened Def Con from 0.0023523 ++++++++++++++++++++++++++to 0.00235231
Heightened Def Con from 0.00235231 ++++++++++++++++++to 0.00235231
Heightened Def Con from 0.00235231 +++++++++++++to 0.00235231
Heightened Def Con from 0.00235231 +++++to 0.00235232
Heightened Def Con from 0.00235232 +to 0.00235232
Heightened Def Con from 0.00235232 to 0.00235232
Heightened Def Con from 0.00235232 to 0.00235232
Heightened Def Con from 0.0023524 +++++++++++++++++++++++++++++++++++++++to 0.00235241
Heightened Def Con from 0.00235241 ++++++++++++++++++++++++++++++++++to 0.00235241
Heightened Def Con from 0.00235241 ++++++++++++++++++++++++to 0.00235242
Heightened Def Con from 0.00235242 +++++++++++++++to 0.00235242
Heightened Def Con from 0.00235242 +++++++to 0.00235243
Heightened Def Con from 0.00235243 to 0.00235243
Heightened Def Con from 0.00235253 to 0.00235254
Heightened Def Con from 0.00235254 +++++++++++++++++++++++++++++++++++++++++to 0.00235254
Heightened Def Con from 0.00235254 +++++++++++++++++++++++++++++++to 0.00235255
Heightened Def Con from 0.00235255 +++++++++++++++++++++to 0.00235255
Heightened Def Con from 0.00235255 +++++++++++to 0.00235255
Heightened Def Con from 0.00235255 +to 0.00235255
Heightened Def Con from 0.00235255 to 0.00235256
Heightened Def Con from 0.0023528 ++++++++++++++++++++++++++++++++++++++++to 0.0023528
Heightened Def Con from 0.0023528 +++++++++++++++++++++++++++++++to 0.00235281
Heightened Def Con from 0.00235281 +++++++++++++++++++++++to 0.00235281
Heightened Def Con from 0.00235281 ++++++++++++++to 0.00235282
Heightened Def Con from 0.00235282 +++++to 0.00235282
Heightened Def Con from 0.00235282 +to 0.00235282
Heightened Def Con from 0.00235296 ++++++++++++++++++++++++to 0.00235297
Heightened Def Con from 0.00235297 +++++++++++++++++++++++++++++++++++++++++to 0.00235297
Heightened Def Con from 0.00235297 +++++++++++++++++++++++++++++++to 0.00235298
Heightened Def Con from 0.00235298 +++++++++++++++++++++to 0.00235298
Heightened Def Con from 0.00235298 +++++++++++to 0.00235298
Heightened Def Con from 0.00235298 +to 0.00235299
Heightened Def Con from 0.00235299 to 0.00235299
Heightened Def Con from 0.00235345 +++++++++++++++++++++to 0.00235345
Heightened Def Con from 0.00235345 +++++++++++++++++++++to 0.00235346
Heightened Def Con from 0.00235346 +++++++++++++++++++++++to 0.00235347
Heightened Def Con from 0.00235347 +++++++++++++++to 0.00235347
Heightened Def Con from 0.00235347 +++++++++++to 0.00235347
Heightened Def Con from 0.00235347 +++to 0.00235348
Heightened Def Con from 0.00235348 ++++++++++++++++++++++to 0.00235348
Heightened Def Con from 0.00235348 +++++++++++++++to 0.00235348
Heightened Def Con from 0.00235348 +++++++++to 0.00235349
Heightened Def Con from 0.00235349 +++++to 0.00235349
Heightened Def Con from 0.00235349 ++++++to 0.00235349
Heightened Def Con from 0.00235349 +++++++to 0.0023535
Heightened Def Con from 0.0023535 +++to 0.0023535
Heightened Def Con from 0.0023535 +++++++++++++++++++to 0.0023535
Heightened Def Con from 0.0023535 +++++++++++++to 0.0023535
Heightened Def Con from 0.0023535 ++++++++++++to 0.0023535
Heightened Def Con from 0.0023535 ++++++to 0.00235351
Heightened Def Con from 0.00235351 +++++++++++++++++++++++to 0.00235351
Heightened Def Con from 0.00235351 +++++++++++++++++to 0.00235352
Heightened Def Con from 0.00235352 ++++++++to 0.00235352
Heightened Def Con from 0.00235352 ++to 0.00235352
Heightened Def Con from 0.00235353 +to 0.00235353
Heightened Def Con from 0.00235353 +++++++++++++++++++++to 0.00235353
Heightened Def Con from 0.00235353 ++++++++++++++to 0.00235354
Heightened Def Con from 0.00235354 +++++++++++++to 0.00235354
Heightened Def Con from 0.00235354 ++++++to 0.00235354
Heightened Def Con from 0.00235354 +++++++++++++++++++++++to 0.00235355
Heightened Def Con from 0.00235355 +++++++++++++++++to 0.00235355
Heightened Def Con from 0.00235355 +++++++++++++++++to 0.00235356
Heightened Def Con from 0.00235356 +++++++++++++to 0.00235356
Heightened Def Con from 0.00235356 +++++++++++++++++to 0.00235357
Heightened Def Con from 0.00235357 ++++++++to 0.00235357
Heightened Def Con from 0.00235357 +++++++++++++++++++++++++to 0.00235358
Heightened Def Con from 0.00235358 +++++++++++++++++to 0.00235359
Heightened Def Con from 0.00235359 +++++++++to 0.00235359
Heightened Def Con from 0.00235359 +++++to 0.00235359
Heightened Def Con from 0.00235359 to 0.00235359
Heightened Def Con from 0.00235372 +++++++++++++++++++++++++to 0.00235373
Heightened Def Con from 0.00235373 +++++++++++++++++++to 0.00235373
Heightened Def Con from 0.00235373 ++++++++++++++to 0.00235374
Heightened Def Con from 0.00235374 ++++++to 0.00235374
Heightened Def Con from 0.00235374 ++to 0.00235374
Heightened Def Con from 0.00235374 to 0.00235374
Heightened Def Con from 0.00235375 +++++++++++++++++++++++++to 0.00235375
Heightened Def Con from 0.00235375 +++++++++++++++++to 0.00235376
Heightened Def Con from 0.00235376 ++++++++++to 0.00235376
Heightened Def Con from 0.00235376 ++++to 0.00235376
Heightened Def Con from 0.00235376 to 0.00235376
Heightened Def Con from 0.00235389 ++++++++++++++++++++++++to 0.0023539
Heightened Def Con from 0.0023539 ++++++++++++++++++to 0.0023539
Heightened Def Con from 0.0023539 +++++++++++to 0.0023539
Heightened Def Con from 0.0023539 +++++to 0.00235391
Heightened Def Con from 0.00235391 +++++++++++++++++++++++to 0.00235392
Heightened Def Con from 0.00235392 +++++++++++++++to 0.00235392
Heightened Def Con from 0.00235392 ++++++++++++++++++++++++to 0.00235393
Heightened Def Con from 0.00235393 ++++++++++++++++++to 0.00235393
Heightened Def Con from 0.00235393 +++++++++++++to 0.00235394
Heightened Def Con from 0.00235394 ++++to 0.00235394
Heightened Def Con from 0.00235394 to 0.00235394
Heightened Def Con from 0.00235394 +to 0.00235394
Heightened Def Con from 0.00235394 to 0.00235394
Heightened Def Con from 0.00235406 +++++++++++++++++++++++++++++to 0.00235407
Heightened Def Con from 0.00235407 ++++++++++++++++++++++to 0.00235407
Heightened Def Con from 0.00235407 +++++++++++++to 0.00235407
Heightened Def Con from 0.00235407 +++++to 0.00235407
Heightened Def Con from 0.00235407 to 0.00235407
Heightened Def Con from 0.00235407 to 0.00235407
Heightened Def Con from 0.00235429 +++++++++++++++++++++++to 0.0023543
Heightened Def Con from 0.0023543 ++++++++++++++++++to 0.0023543
Heightened Def Con from 0.0023543 ++++++++++++++to 0.0023543
Heightened Def Con from 0.0023543 +++++++++++to 0.00235431
Heightened Def Con from 0.00235431 ++++++to 0.00235431
Heightened Def Con from 0.00235431 ++++to 0.00235431
Heightened Def Con from 0.00235431 +++to 0.00235432
Heightened Def Con from 0.00235432 +++++++++++++++++++++++++++++++++to 0.00235433
Heightened Def Con from 0.00235433 ++++++++++++++++++++++++++to 0.00235433
Heightened Def Con from 0.00235433 +++++++++++++++++++to 0.00235433
Heightened Def Con from 0.00235433 +++++++++++++++to 0.00235434
Heightened Def Con from 0.00235434 +++++++to 0.00235434
Heightened Def Con from 0.00235434 +++to 0.00235434
Heightened Def Con from 0.00235434 +to 0.00235434
Heightened Def Con from 0.00235435 to 0.00235435
Heightened Def Con from 0.00235435 to 0.00235435
Heightened Def Con from 0.00235435 ++to 0.00235435
Heightened Def Con from 0.00235435 ++to 0.00235436
Heightened Def Con from 0.00235436 +to 0.00235436
Heightened Def Con from 0.00235436 +to 0.00235436
Heightened Def Con from 0.00235436 to 0.00235436
Heightened Def Con from 0.00235437 +to 0.00235437
Heightened Def Con from 0.00235437 ++to 0.00235437
Heightened Def Con from 0.00235437 to 0.00235437
Heightened Def Con from 0.00235437 to 0.00235438
Heightened Def Con from 0.00235438 to 0.00235438
Heightened Def Con from 0.00235466 +++++++++++++++++++++++++to 0.00235466
Heightened Def Con from 0.00235466 +++++++++++++++++++++++to 0.00235467
Heightened Def Con from 0.00235467 +++++++++++++++to 0.00235467
Heightened Def Con from 0.00235467 ++++++to 0.00235467
Heightened Def Con from 0.00235467 +to 0.00235468
Heightened Def Con from 0.00235468 to 0.00235468
Heightened Def Con from 0.00235477 +++++++++++++++++++++++++++to 0.00235478
Heightened Def Con from 0.00235478 ++++++++++++++++++++++to 0.00235478
Heightened Def Con from 0.00235478 +++++++++++++++to 0.00235478
Heightened Def Con from 0.00235478 +++++++++to 0.00235478
Heightened Def Con from 0.00235478 +++++++to 0.00235479
Heightened Def Con from 0.00235479 ++to 0.00235479
Heightened Def Con from 0.00235479 to 0.00235479
Heightened Def Con from 0.00235479 +to 0.0023548
Heightened Def Con from 0.0023548 to 0.0023548
Heightened Def Con from 0.0023548 +to 0.0023548
Heightened Def Con from 0.0023548 +to 0.0023548
Heightened Def Con from 0.0023548 to 0.00235481
Heightened Def Con from 0.00235481 +++++++++++++++++++++++to 0.00235481
Heightened Def Con from 0.00235481 +++++++++++++++++++to 0.00235481
Heightened Def Con from 0.00235481 +++++++++++to 0.00235482
Heightened Def Con from 0.00235482 +++++++++++++++++++++++++++++to 0.00235482
Heightened Def Con from 0.00235482 +++++++++++++++++++++++to 0.00235483
Heightened Def Con from 0.00235483 +++++++++++++++to 0.00235483
Heightened Def Con from 0.00235483 +++++++++to 0.00235483
Heightened Def Con from 0.00235483 +++++to 0.00235483
Heightened Def Con from 0.00235483 to 0.00235483
Heightened Def Con from 0.00235506 ++++++++++++++++++++++to 0.00235507
Heightened Def Con from 0.00235507 +++++++++++++++++++++++++++to 0.00235508
Heightened Def Con from 0.00235508 ++++++++++++++++++++to 0.00235508
Heightened Def Con from 0.00235508 +++++++++++++++to 0.00235508
Heightened Def Con from 0.00235508 ++++++++to 0.00235508
Heightened Def Con from 0.00235508 +to 0.00235509
Heightened Def Con from 0.00235509 to 0.00235509
Heightened Def Con from 0.00235509 ++to 0.00235509
Heightened Def Con from 0.00235509 to 0.0023551
Heightened Def Con from 0.0023551 +to 0.0023551
Heightened Def Con from 0.0023551 +++to 0.0023551
Heightened Def Con from 0.0023551 ++++++++++++++++++++++++to 0.00235511
Heightened Def Con from 0.00235511 ++++++++++++++++to 0.00235511
Heightened Def Con from 0.00235511 +++++++++++to 0.00235512
Heightened Def Con from 0.00235512 +++++to 0.00235512
Heightened Def Con from 0.00235512 +++to 0.00235512
Heightened Def Con from 0.00235512 ++to 0.00235512
Heightened Def Con from 0.00235513 to 0.00235513
Heightened Def Con from 0.00235526 +++++++++++++++++++++to 0.00235526
Heightened Def Con from 0.00235526 ++++++++++++++++++++++++++++to 0.00235527
Heightened Def Con from 0.00235527 ++++++++++++++++++to 0.00235527
Heightened Def Con from 0.00235527 ++++++++++to 0.00235527
Heightened Def Con from 0.00235527 +++++++to 0.00235528
Heightened Def Con from 0.00235528 +to 0.00235528
Heightened Def Con from 0.00235528 to 0.00235528
Heightened Def Con from 0.00235547 ++++++++++++++++++++++to 0.00235548
Heightened Def Con from 0.00235548 ++++++++++++++++++++++to 0.00235548
Heightened Def Con from 0.00235548 ++++++++++++++++to 0.00235548
Heightened Def Con from 0.00235548 ++++++++++++++++++++++++++to 0.00235549
Heightened Def Con from 0.00235549 +++++++++++++++++++to 0.00235549
Heightened Def Con from 0.00235549 +++++++++++to 0.00235549
Heightened Def Con from 0.00235549 +++to 0.0023555
Heightened Def Con from 0.0023555 +to 0.0023555
Heightened Def Con from 0.0023555 +++++++++++++++++++to 0.0023555
Heightened Def Con from 0.0023555 ++++++++++++to 0.00235551
Heightened Def Con from 0.00235551 +++++to 0.00235551
Heightened Def Con from 0.00235551 +to 0.00235551
Heightened Def Con from 0.00235551 to 0.00235551
Heightened Def Con from 0.00235551 ++++++++++++++++++++++++to 0.00235552
Heightened Def Con from 0.00235552 +++++++++++++++++to 0.00235552
Heightened Def Con from 0.00235552 +++++++++++++++to 0.00235553
Heightened Def Con from 0.00235553 +++++++to 0.00235553
Heightened Def Con from 0.00235553 ++++++++++++++++++++++++to 0.00235553
Heightened Def Con from 0.00235553 +++++++++++++++++++to 0.00235554
Heightened Def Con from 0.00235554 +++++++++++++++++++to 0.00235555
Heightened Def Con from 0.00235555 ++++++++++++++++++to 0.00235555
Heightened Def Con from 0.00235555 ++++++++++++to 0.00235555
Heightened Def Con from 0.00235555 ++++++++to 0.00235556
Heightened Def Con from 0.00235556 ++++++++++++++++++to 0.00235556
Heightened Def Con from 0.00235556 +++++++++to 0.00235556
Heightened Def Con from 0.00235556 to 0.00235556
Heightened Def Con from 0.00235567 ++++++++++++++++++++++++++to 0.00235567
Heightened Def Con from 0.00235567 ++++++++++++++++++++++++++++++to 0.00235568
Heightened Def Con from 0.00235568 +++++++++++++++++++++++++++++to 0.00235569
Heightened Def Con from 0.00235569 ++++++++++++++++++++++to 0.00235569
Heightened Def Con from 0.00235569 +++++++++++++++++to 0.0023557
Heightened Def Con from 0.0023557 ++++++++++++to 0.0023557
Heightened Def Con from 0.0023557 +++++to 0.0023557
Heightened Def Con from 0.0023557 +to 0.00235571
Heightened Def Con from 0.00235571 to 0.00235571
Heightened Def Con from 0.00235571 to 0.00235571
Heightened Def Con from 0.00235596 ++++++++++++++++++++++++to 0.00235596
Heightened Def Con from 0.00235596 ++++++++++++++++++++++++++to 0.00235597
Heightened Def Con from 0.00235597 +++++++++++++++++++++++to 0.00235597
Heightened Def Con from 0.00235597 ++++++++++++++++++to 0.00235598
Heightened Def Con from 0.00235598 ++++++++to 0.00235598
Heightened Def Con from 0.00235598 +to 0.00235598
Heightened Def Con from 0.00235598 to 0.00235598
Heightened Def Con from 0.00235598 +to 0.00235598
Heightened Def Con from 0.00235598 ++to 0.00235599
Heightened Def Con from 0.00235599 +to 0.00235599
Heightened Def Con from 0.00235599 to 0.00235599
Heightened Def Con from 0.00235599 +++++++++++++++++++to 0.002356
Heightened Def Con from 0.002356 ++++++++++++++++++to 0.002356
Heightened Def Con from 0.002356 +++++++++++to 0.002356
Heightened Def Con from 0.002356 ++++to 0.00235601
Heightened Def Con from 0.00235601 +++to 0.00235601
Heightened Def Con from 0.00235601 ++to 0.00235601
Heightened Def Con from 0.00235601 +++to 0.00235601
Heightened Def Con from 0.00235601 +to 0.00235602
Heightened Def Con from 0.00235602 to 0.00235602
Heightened Def Con from 0.00235612 ++++++++++++++++++++++++++to 0.00235612
Heightened Def Con from 0.00235612 +++++++++++++++++++to 0.00235613
Heightened Def Con from 0.00235613 +++++++++++++++++to 0.00235613
Heightened Def Con from 0.00235613 ++++++++++++++to 0.00235613
Heightened Def Con from 0.00235613 +++++++++++++to 0.00235614
Heightened Def Con from 0.00235614 ++++++++++to 0.00235614
Heightened Def Con from 0.00235614 to 0.00235614
Heightened Def Con from 0.00235614 +to 0.00235615
Heightened Def Con from 0.00235615 +++++++++++++++++++to 0.00235615
Heightened Def Con from 0.00235615 ++++++++++++++to 0.00235615
Heightened Def Con from 0.00235615 ++++to 0.00235616
Heightened Def Con from 0.00235616 +++to 0.00235616
Heightened Def Con from 0.00235616 ++to 0.00235616
Heightened Def Con from 0.00235616 ++++++++++++++++++++++++to 0.00235617
Heightened Def Con from 0.00235617 +++++++++++++++++++++++++++to 0.00235617
Heightened Def Con from 0.00235617 ++++++++++++++++++++++++++++++++++to 0.00235619
Heightened Def Con from 0.00235619 ++++++++++++++++++++++++++++++++to 0.00235619
Heightened Def Con from 0.00235619 +++++++++++++++++++++++++++++++++++++++to 0.00235622
Heightened Def Con from 0.00235622 ++++++++++++++++++++++++++++++++++to 0.00235623
Heightened Def Con from 0.00235623 ++++++++++++++++++++++++++++++to 0.00235623
Heightened Def Con from 0.00235623 ++++++++++++++++++++++++++++to 0.00235624
Heightened Def Con from 0.00235624 ++++++++++++++++++++++to 0.00235624
Heightened Def Con from 0.00235624 ++++++++++++++++to 0.00235624
Heightened Def Con from 0.00235624 ++++++to 0.00235625
Heightened Def Con from 0.00235625 ++to 0.00235625
Heightened Def Con from 0.00235625 +++++++++++++++++++++++to 0.00235625
Heightened Def Con from 0.00235625 ++++++++++++++++++to 0.00235625
Heightened Def Con from 0.00235625 +++++++++++++to 0.00235626
Heightened Def Con from 0.00235626 +++++to 0.00235626
Heightened Def Con from 0.00235626 ++to 0.00235626
Heightened Def Con from 0.00235626 +to 0.00235626
Heightened Def Con from 0.00235627 +to 0.00235627
Heightened Def Con from 0.00235627 to 0.00235627
Heightened Def Con from 0.00235627 ++to 0.00235627
Heightened Def Con from 0.00235628 ++++++++++++++++++++++++++++++++to 0.00235628
Heightened Def Con from 0.00235628 +++++++++++++++++++++++++to 0.00235629
Heightened Def Con from 0.00235629 ++++++++++++++++++++to 0.00235629
Heightened Def Con from 0.00235629 ++++++++++++++++++++++++++++++++++to 0.0023563
Heightened Def Con from 0.0023563 ++++++++++++++++++++++++++++++++++++++++to 0.00235631
Heightened Def Con from 0.00235631 ++++++++++++++++++++++++++++++to 0.00235631
Heightened Def Con from 0.00235631 +++++++++++++++++++++to 0.00235632
Heightened Def Con from 0.00235632 ++++++++++++to 0.00235632
Heightened Def Con from 0.00235632 +++to 0.00235632
Heightened Def Con from 0.00235632 to 0.00235633
Heightened Def Con from 0.00235648 ++++++++++++++++++++++++++++++++++++++++to 0.00235648
Heightened Def Con from 0.00235648 ++++++++++++++++++++++++++++++++++to 0.00235649
Heightened Def Con from 0.00235649 +++++++++++++++++++++++++to 0.00235649
Heightened Def Con from 0.00235649 +++++++++++++++++++to 0.0023565
Heightened Def Con from 0.0023565 ++++++++++++to 0.0023565
Heightened Def Con from 0.0023565 +++++to 0.0023565
Heightened Def Con from 0.0023565 +to 0.00235651
Heightened Def Con from 0.00235651 ++++++++++++++++++++to 0.00235651
Heightened Def Con from 0.00235651 +++++++++++++to 0.00235651
Heightened Def Con from 0.00235651 +++++++to 0.00235651
Heightened Def Con from 0.00235651 ++++++++++++++++++++++++++to 0.00235652
Heightened Def Con from 0.00235652 +++++++++++++++++++to 0.00235652
Heightened Def Con from 0.00235652 ++++++++++++to 0.00235652
Heightened Def Con from 0.00235652 +++++++to 0.00235652
Heightened Def Con from 0.00235652 +++to 0.00235653
Heightened Def Con from 0.00235653 +to 0.00235653
Heightened Def Con from 0.00235653 ++++++++++++++++++++++++++++to 0.00235654
Heightened Def Con from 0.00235654 +++++++++++++++++++++to 0.00235654
Heightened Def Con from 0.00235654 ++++++++++++++++++++++++++++++++++++++++to 0.00235656
Heightened Def Con from 0.00235656 ++++++++++++++++++++++++++++++to 0.00235656
Heightened Def Con from 0.00235656 +++++++++++++++++++++to 0.00235657
Heightened Def Con from 0.00235657 +++++++++++to 0.00235657
Heightened Def Con from 0.00235657 ++to 0.00235657
Heightened Def Con from 0.00235657 to 0.00235657
Heightened Def Con from 0.00235671 ++++++++++++++++++++++++++++++++++++++++to 0.00235671
Heightened Def Con from 0.00235671 ++++++++++++++++++++++++++++++to 0.00235672
Heightened Def Con from 0.00235672 ++++++++++++++++++++++to 0.00235672
Heightened Def Con from 0.00235672 +++++++++++++to 0.00235672
Heightened Def Con from 0.00235672 ++++to 0.00235672
Heightened Def Con from 0.00235672 +to 0.00235673
Heightened Def Con from 0.00235687 to 0.00235687
Heightened Def Con from 0.00235687 ++++++++++++++++++++++++++++++++++++++++++to 0.00235687
Heightened Def Con from 0.00235687 ++++++++++++++++++++++++++++++++to 0.00235688
Heightened Def Con from 0.00235688 ++++++++++++++++++++++to 0.00235688
Heightened Def Con from 0.00235688 ++++++++++++to 0.00235688
Heightened Def Con from 0.00235688 ++to 0.00235689
Heightened Def Con from 0.00235689 to 0.00235689
Heightened Def Con from 0.00235713 ++++++++++++++++++++++++++++++++++++++++to 0.00235713
Heightened Def Con from 0.00235713 ++++++++++++++++++++++++++++++to 0.00235714
Heightened Def Con from 0.00235714 ++++++++++++++++++++++++to 0.00235714
Heightened Def Con from 0.00235714 ++++++++++++++to 0.00235714
Heightened Def Con from 0.00235714 +++++to 0.00235714
Heightened Def Con from 0.00235714 +to 0.00235715
Heightened Def Con from 0.00235758 +++++++++++++++++++++to 0.00235758
Heightened Def Con from 0.00235758 ++++++++++++++++++++++to 0.00235759
Heightened Def Con from 0.00235759 ++++++++++++++++to 0.00235759
Heightened Def Con from 0.00235759 ++++++++++++++++to 0.0023576
Heightened Def Con from 0.0023576 ++++++++++++++++to 0.0023576
Heightened Def Con from 0.0023576 +++++++++++++++++++++to 0.00235761
Heightened Def Con from 0.00235761 +++++++++++++++to 0.00235762
Heightened Def Con from 0.00235762 ++++++++++++++++++++++++to 0.00235763
Heightened Def Con from 0.00235763 ++++++++++++++++++to 0.00235763
Heightened Def Con from 0.00235763 +++++++++++++to 0.00235764
Heightened Def Con from 0.00235764 +++++to 0.00235764
Heightened Def Con from 0.00235764 to 0.00235764
Heightened Def Con from 0.00235774 ++++++++++++++++++++to 0.00235774
Heightened Def Con from 0.00235774 ++++++++++++++++++++to 0.00235774
Heightened Def Con from 0.00235774 ++++++++++++++++++++++to 0.00235775
Heightened Def Con from 0.00235775 +++++++++++++++++to 0.00235776
Heightened Def Con from 0.00235776 +++++++++++++++to 0.00235776
Heightened Def Con from 0.00235776 ++++++++++to 0.00235777
Heightened Def Con from 0.00235777 +++++++++++++++++++++to 0.00235777
Heightened Def Con from 0.00235777 ++++++++++++++to 0.00235777
Heightened Def Con from 0.00235777 ++++++to 0.00235777
Heightened Def Con from 0.00235777 ++++to 0.00235778
Heightened Def Con from 0.00235778 ++++++++++++++++++++++to 0.00235778
Heightened Def Con from 0.00235778 ++++++++++++++++++++++to 0.00235779
Heightened Def Con from 0.00235779 ++++++++++++++++++++++to 0.0023578
Heightened Def Con from 0.0023578 ++++++++++++++++to 0.0023578
Heightened Def Con from 0.0023578 ++++++++++to 0.0023578
Heightened Def Con from 0.0023578 +++to 0.00235781
Heightened Def Con from 0.00235781 ++++++++++++++++++++++++to 0.00235782
Heightened Def Con from 0.00235782 +++++++++++++++++to 0.00235782
Heightened Def Con from 0.00235782 ++++++++++to 0.00235782
Heightened Def Con from 0.00235782 +++to 0.00235783
Heightened Def Con from 0.00235783 to 0.00235783
Heightened Def Con from 0.00235783 to 0.00235783
Heightened Def Con from 0.00235793 ++++++++++++++++++++to 0.00235793
Heightened Def Con from 0.00235793 ++++++++++++++++++++to 0.00235794
Heightened Def Con from 0.00235794 ++++++++++++++++++++to 0.00235794
Heightened Def Con from 0.00235794 ++++++++++++++++++++++++to 0.00235794
Heightened Def Con from 0.00235794 ++++++++++++++++to 0.00235795
Heightened Def Con from 0.00235795 ++++++++++to 0.00235795
Heightened Def Con from 0.00235795 +++to 0.00235795
Heightened Def Con from 0.00235795 to 0.00235796
Heightened Def Con from 0.00235804 +++++++++++++++++++++to 0.00235804
Heightened Def Con from 0.00235804 ++++++++++++++++++++++to 0.00235804
Heightened Def Con from 0.00235804 +++++++++++++++to 0.00235805
Heightened Def Con from 0.00235805 ++++++++++++++++++++to 0.00235805
Heightened Def Con from 0.00235805 +++++++++++to 0.00235806
Heightened Def Con from 0.00235806 +++to 0.00235806
Heightened Def Con from 0.00235806 ++++++to 0.00235807
Heightened Def Con from 0.00235807 ++++++++++++++++++++++++to 0.00235807
Heightened Def Con from 0.00235807 ++++++++++++++++to 0.00235808
Heightened Def Con from 0.00235808 ++++++++++++to 0.00235808
Heightened Def Con from 0.00235808 ++++++++++++++++++to 0.00235808
Heightened Def Con from 0.00235808 +++++++++to 0.00235809
Heightened Def Con from 0.00235809 ++++++++++++++++++++++++++to 0.00235809
Heightened Def Con from 0.00235809 ++++++++++++++++++++to 0.0023581
Heightened Def Con from 0.0023581 ++++++++++to 0.0023581
Heightened Def Con from 0.0023581 +to 0.0023581
Heightened Def Con from 0.0023581 to 0.0023581
Heightened Def Con from 0.00235824 +to 0.00235824
Heightened Def Con from 0.00235824 ++++++++++++++++++to 0.00235824
Heightened Def Con from 0.00235824 +++++++++++++++++++++++to 0.00235825
Heightened Def Con from 0.00235825 +++++++++++++++to 0.00235825
Heightened Def Con from 0.00235825 +++++++to 0.00235826
Heightened Def Con from 0.00235826 +++to 0.00235827
Heightened Def Con from 0.00235827 +++++++++++++++++++to 0.00235827
Heightened Def Con from 0.00235827 ++++++++++++++++++to 0.00235827
Heightened Def Con from 0.00235827 ++++++++++++++++to 0.00235827
Heightened Def Con from 0.00235827 +++++++++++++++++++++++to 0.00235828
Heightened Def Con from 0.00235828 +++++++++++++++++++++to 0.00235828
Heightened Def Con from 0.00235828 ++++++++++++++++to 0.00235828
Heightened Def Con from 0.00235828 ++++++++++to 0.00235829
Heightened Def Con from 0.00235829 +++++to 0.00235829
Heightened Def Con from 0.00235829 to 0.00235829
Heightened Def Con from 0.00235829 ++to 0.0023583
Heightened Def Con from 0.0023583 to 0.0023583
Heightened Def Con from 0.0023583 +to 0.0023583
Heightened Def Con from 0.0023583 +++++++++++++++++++++++++to 0.00235831
Heightened Def Con from 0.00235831 +++++++++++++++++to 0.00235832
Heightened Def Con from 0.00235832 +++++++to 0.00235832
Heightened Def Con from 0.00235832 ++to 0.00235832
Heightened Def Con from 0.00235832 to 0.00235832
Heightened Def Con from 0.00235832 to 0.00235832
Heightened Def Con from 0.00235832 to 0.00235832
Heightened Def Con from 0.00235844 to 0.00235844
Heightened Def Con from 0.00235844 ++++++++++++++++++++++++++to 0.00235845
Heightened Def Con from 0.00235845 ++++++++++++++++++++to 0.00235845
Heightened Def Con from 0.00235845 ++++++++++++to 0.00235845
Heightened Def Con from 0.00235845 +++++to 0.00235845
Heightened Def Con from 0.00235846 to 0.00235846
Heightened Def Con from 0.00235846 to 0.00235846
Heightened Def Con from 0.00235846 to 0.00235846
Heightened Def Con from 0.00235859 +++++++++++++++++++++++to 0.0023586
Heightened Def Con from 0.0023586 +++++++++++++++to 0.0023586
Heightened Def Con from 0.0023586 +++++++++to 0.00235861
Heightened Def Con from 0.00235861 to 0.00235861
Heightened Def Con from 0.00235861 to 0.00235861
Heightened Def Con from 0.00235861 ++++++++++++++++++to 0.00235861
Heightened Def Con from 0.00235861 +++++++++++++to 0.00235862
Heightened Def Con from 0.00235862 ++++++++++to 0.00235862
Heightened Def Con from 0.00235862 +++++++++++++++++++++++++++++++to 0.00235863
Heightened Def Con from 0.00235863 +++++++++++++++++++++++to 0.00235863
Heightened Def Con from 0.00235863 ++++++++++++++++++to 0.00235864
Heightened Def Con from 0.00235864 ++++++++++++to 0.00235864
Heightened Def Con from 0.00235864 ++++++to 0.00235864
Heightened Def Con from 0.00235864 to 0.00235865
Heightened Def Con from 0.00235865 +to 0.00235865
Heightened Def Con from 0.00235865 to 0.00235865
Heightened Def Con from 0.00235865 to 0.00235866
Heightened Def Con from 0.00235889 +++++++++++++++++++++to 0.0023589
Heightened Def Con from 0.0023589 +++++++++++++++++++++to 0.0023589
Heightened Def Con from 0.0023589 +++++++++++++++++to 0.00235891
Heightened Def Con from 0.00235891 ++++++++++++++++++++++++to 0.00235891
Heightened Def Con from 0.00235891 ++++++++++++++++++++to 0.00235892
Heightened Def Con from 0.00235892 ++++++++++++++to 0.00235892
Heightened Def Con from 0.00235892 +++++to 0.00235892
Heightened Def Con from 0.00235892 +++++++++++++++++++++++to 0.00235893
Heightened Def Con from 0.00235893 +++++++++++++++++++to 0.00235893
Heightened Def Con from 0.00235893 ++++++++++++to 0.00235893
Heightened Def Con from 0.00235893 +++++to 0.00235894
Heightened Def Con from 0.00235894 +to 0.00235894
Heightened Def Con from 0.00235894 +to 0.00235894
Heightened Def Con from 0.00235894 to 0.00235895
Heightened Def Con from 0.00235895 to 0.00235895
Heightened Def Con from 0.00235895 to 0.00235895
Heightened Def Con from 0.00235902 ++++++++++++++++++++to 0.00235902
Heightened Def Con from 0.00235902 +++++++++++++++++++++++++to 0.00235903
Heightened Def Con from 0.00235903 ++++++++++++++++++to 0.00235903
Heightened Def Con from 0.00235903 +++++++++++to 0.00235904
Heightened Def Con from 0.00235904 ++to 0.00235904
Heightened Def Con from 0.00235904 to 0.00235904
Heightened Def Con from 0.00235915 +++++++++++++++++++++++to 0.00235916
Heightened Def Con from 0.00235916 ++++++++++++++++to 0.00235916
Heightened Def Con from 0.00235916 ++++++++++to 0.00235917
Heightened Def Con from 0.00235917 ++to 0.00235917
Heightened Def Con from 0.00235917 ++++++++++++++++++to 0.00235918
Heightened Def Con from 0.00235918 +++++++++++++++++to 0.00235918
Heightened Def Con from 0.00235918 +++++++++++++++++++++++to 0.00235918
Heightened Def Con from 0.00235918 ++++++++++++++++++++++to 0.00235919
Heightened Def Con from 0.00235919 ++++++++++++to 0.00235919
Heightened Def Con from 0.00235919 +++++to 0.00235919
Heightened Def Con from 0.00235919 +to 0.0023592
Heightened Def Con from 0.0023592 +to 0.0023592
Heightened Def Con from 0.0023592 ++to 0.0023592
Heightened Def Con from 0.0023592 to 0.00235921
Heightened Def Con from 0.00235921 to 0.00235921
Heightened Def Con from 0.00235921 to 0.00235921
Heightened Def Con from 0.00235921 to 0.00235921
Heightened Def Con from 0.00235921 to 0.00235922
Heightened Def Con from 0.00235927 to 0.00235927
Heightened Def Con from 0.00235927 ++++++++++++++++++++++++to 0.00235928
Heightened Def Con from 0.00235928 +++++++++++++++++++++++to 0.00235928
Heightened Def Con from 0.00235928 ++++++++++++++++++to 0.00235929
Heightened Def Con from 0.00235929 ++++++++++to 0.00235929
Heightened Def Con from 0.00235929 +++++to 0.00235929
Heightened Def Con from 0.00235929 ++to 0.0023593
Heightened Def Con from 0.0023593 to 0.0023593
Heightened Def Con from 0.0023593 to 0.0023593
Heightened Def Con from 0.00235938 ++++++++++++++++++++++to 0.00235939
Heightened Def Con from 0.00235939 +++++++++++++++++++++to 0.0023594
Heightened Def Con from 0.0023594 ++++++++++++++++++to 0.0023594
Heightened Def Con from 0.0023594 ++++++++++++to 0.0023594
Heightened Def Con from 0.0023594 +++++++to 0.00235941
Heightened Def Con from 0.00235941 +++++++++++to 0.00235941
Heightened Def Con from 0.00235941 ++++++to 0.00235942
Heightened Def Con from 0.00235942 +++++++++++++++++++++++++to 0.00235942
Heightened Def Con from 0.00235942 ++++++++++++++++++++to 0.00235943
Heightened Def Con from 0.00235943 +++++++++++to 0.00235943
Heightened Def Con from 0.00235943 +++++++to 0.00235943
Heightened Def Con from 0.00235943 +to 0.00235944
Heightened Def Con from 0.00235944 +++++++++++++++++++++++to 0.00235944
Heightened Def Con from 0.00235944 +++++++++++++++++to 0.00235944
Heightened Def Con from 0.00235944 ++++++++++to 0.00235945
Heightened Def Con from 0.00235945 +++++to 0.00235945
Heightened Def Con from 0.00235945 to 0.00235945
Heightened Def Con from 0.00235956 +++++++++++++++++++++to 0.00235957
Heightened Def Con from 0.00235957 ++++++++++++++++++++++to 0.00235957
Heightened Def Con from 0.00235957 ++++++++++++++++to 0.00235958
Heightened Def Con from 0.00235958 +++++++++++++++++++++++to 0.0023596
Heightened Def Con from 0.0023596 ++++++++++++++++to 0.0023596
Heightened Def Con from 0.0023596 +++++++to 0.0023596
Heightened Def Con from 0.0023596 ++++++++++++++++++++++++to 0.00235961
Heightened Def Con from 0.00235961 +++++++++++++++++to 0.00235961
Heightened Def Con from 0.00235961 ++++++++++to 0.00235961
Heightened Def Con from 0.00235961 ++to 0.00235962
Heightened Def Con from 0.00235962 to 0.00235962
Heightened Def Con from 0.00235971 ++++++++++++++++++++++++to 0.00235971
Heightened Def Con from 0.00235971 ++++++++++++++++++++to 0.00235972
Heightened Def Con from 0.00235972 ++++++++++++++++++to 0.00235972
Heightened Def Con from 0.00235972 +++++++++to 0.00235972
Heightened Def Con from 0.00235972 to 0.00235973
Heightened Def Con from 0.00235973 to 0.00235973
Heightened Def Con from 0.00235973 +to 0.00235973
Heightened Def Con from 0.00235973 to 0.00235973
Heightened Def Con from 0.0023598 to 0.0023598
Heightened Def Con from 0.0023598 ++++++++++++++++++++++to 0.00235981
Heightened Def Con from 0.00235981 +++++++++++++++to 0.00235981
Heightened Def Con from 0.00235981 ++++++++to 0.00235982
Heightened Def Con from 0.00235982 +to 0.00235982
Heightened Def Con from 0.00235982 +to 0.00235982
Heightened Def Con from 0.00235982 to 0.00235982
Heightened Def Con from 0.00235982 to 0.00235982
Heightened Def Con from 0.00235985 +++++++++++++++++++++++++++to 0.00235986
Heightened Def Con from 0.00235986 +++++++++++++++++++++to 0.00235986
Heightened Def Con from 0.00235986 ++++++++++++to 0.00235986
Heightened Def Con from 0.00235986 +++++to 0.00235987
Heightened Def Con from 0.00235987 ++to 0.00235987
Heightened Def Con from 0.00235987 to 0.00235988
Heightened Def Con from 0.00236003 ++++++++++++++++++++++to 0.00236003
Heightened Def Con from 0.00236003 ++++++++++++++++++++++to 0.00236004
Heightened Def Con from 0.00236004 +++++++++++++++++to 0.00236004
Heightened Def Con from 0.00236004 ++++++++++++++++to 0.00236005
Heightened Def Con from 0.00236005 +++++++++++++++++to 0.00236005
Heightened Def Con from 0.00236005 ++++++++++to 0.00236006
Heightened Def Con from 0.00236006 +++++++++++++++++to 0.00236006
Heightened Def Con from 0.00236006 ++++++++++++++++++++++++++++to 0.00236007
Heightened Def Con from 0.00236007 ++++++++++++++++++++++++to 0.00236007
Heightened Def Con from 0.00236007 +++++++++++++++++to 0.00236007
Heightened Def Con from 0.00236007 +++++++++++to 0.00236008
Heightened Def Con from 0.00236008 +++++to 0.00236008
Heightened Def Con from 0.00236008 to 0.00236008
Heightened Def Con from 0.00236008 to 0.00236009
Heightened Def Con from 0.00236009 to 0.00236009
Heightened Def Con from 0.00236023 to 0.00236023
Heightened Def Con from 0.00236023 ++++++++++++++++++to 0.00236023
Heightened Def Con from 0.00236023 +++++++++++++++++++++to 0.00236023
Heightened Def Con from 0.00236023 ++++++++++++++++++++++to 0.00236024
Heightened Def Con from 0.00236024 +++++++++++++++++++++to 0.00236024
Heightened Def Con from 0.00236024 ++++++++++++++++++to 0.00236025
Heightened Def Con from 0.00236025 ++++++++++++++++++++++++++to 0.00236026
Heightened Def Con from 0.00236026 ++++++++++++++++++++to 0.00236026
Heightened Def Con from 0.00236026 ++++++++++++++to 0.00236027
Heightened Def Con from 0.00236027 +++++++++to 0.00236027
Heightened Def Con from 0.00236027 +++to 0.00236027
Heightened Def Con from 0.00236027 to 0.00236027
Heightened Def Con from 0.00236027 to 0.00236028
Heightened Def Con from 0.00236028 to 0.00236028
Heightened Def Con from 0.00236028 +to 0.00236028
Heightened Def Con from 0.00236028 to 0.00236028
Heightened Def Con from 0.0023604 +++++++++++++++++++++to 0.00236041
Heightened Def Con from 0.00236041 +++++++++++++++++++++++to 0.00236042
Heightened Def Con from 0.00236042 ++++++++++++++++++to 0.00236042
Heightened Def Con from 0.00236042 +++++++++++++to 0.00236042
Heightened Def Con from 0.00236042 ++++++++++to 0.00236043
Heightened Def Con from 0.00236043 ++++to 0.00236043
Heightened Def Con from 0.00236043 +++++++++++++++++++++++++to 0.00236044
Heightened Def Con from 0.00236044 ++++++++++++++++to 0.00236044
Heightened Def Con from 0.00236044 +++++++++++++++to 0.00236045
Heightened Def Con from 0.00236045 ++++++++++++to 0.00236045
Heightened Def Con from 0.00236045 ++++to 0.00236045
Heightened Def Con from 0.00236045 to 0.00236046
Heightened Def Con from 0.00236046 ++to 0.00236046
Heightened Def Con from 0.00236046 ++++to 0.00236047
Heightened Def Con from 0.00236047 to 0.00236047
Heightened Def Con from 0.00236047 +to 0.00236047
Heightened Def Con from 0.00236047 +to 0.00236047
Heightened Def Con from 0.00236047 to 0.00236048
Heightened Def Con from 0.00236056 ++++++++++++++++++++++++to 0.00236057
Heightened Def Con from 0.00236057 +++++++++++++++to 0.00236057
Heightened Def Con from 0.00236057 ++++++++to 0.00236057
Heightened Def Con from 0.00236057 +to 0.00236058
Heightened Def Con from 0.00236058 ++to 0.00236058
Heightened Def Con from 0.00236058 to 0.00236058
Heightened Def Con from 0.00236058 to 0.00236059
Heightened Def Con from 0.00236059 to 0.00236059
Heightened Def Con from 0.00236059 to 0.00236059
Heightened Def Con from 0.00236059 to 0.00236059
Heightened Def Con from 0.00236066 +++++++++++++++++++++++to 0.00236067
Heightened Def Con from 0.00236067 ++++++++++++++++++to 0.00236067
Heightened Def Con from 0.00236067 +++++++++to 0.00236067
Heightened Def Con from 0.00236067 ++++++++++++++++++++++++to 0.00236068
Heightened Def Con from 0.00236068 +++++++++++++++++++++++to 0.00236068
Heightened Def Con from 0.00236068 ++++++++++++++++++++to 0.00236069
Heightened Def Con from 0.00236069 ++++++++++++++to 0.00236069
Heightened Def Con from 0.00236069 +++++++++++to 0.0023607
Heightened Def Con from 0.0023607 +++to 0.0023607
Heightened Def Con from 0.0023607 to 0.0023607
Heightened Def Con from 0.0023607 ++to 0.00236071
Heightened Def Con from 0.00236071 ++to 0.00236071
Heightened Def Con from 0.00236071 to 0.00236071
Heightened Def Con from 0.0023608 ++++++++++++++++++++++++++to 0.0023608
Heightened Def Con from 0.0023608 ++++++++++++++++++to 0.00236081
Heightened Def Con from 0.00236081 ++++++++++to 0.00236081
Heightened Def Con from 0.00236081 ++++++to 0.00236081
Heightened Def Con from 0.00236081 to 0.00236081
Heightened Def Con from 0.00236082 +to 0.00236082
Heightened Def Con from 0.00236082 to 0.00236082
Heightened Def Con from 0.00236095 +++++++++++++++++++++++to 0.00236096
Heightened Def Con from 0.00236096 +++++++++++++++++to 0.00236096
Heightened Def Con from 0.00236096 ++++++++++to 0.00236097
Heightened Def Con from 0.00236097 ++++++to 0.00236097
Heightened Def Con from 0.00236097 ++++++++++++++++++++++++++to 0.00236098
Heightened Def Con from 0.00236098 ++++++++++++++++++++++++++++to 0.00236099
Heightened Def Con from 0.00236099 ++++++++++++++++++to 0.00236099
Heightened Def Con from 0.00236099 ++++++++++to 0.00236099
Heightened Def Con from 0.00236099 +++to 0.00236099
Heightened Def Con from 0.00236099 to 0.00236099
Heightened Def Con from 0.00236099 to 0.002361
Heightened Def Con from 0.00236118 ++++++++++++++++++++++++to 0.00236119
Heightened Def Con from 0.00236119 ++++++++++++++++++++++to 0.0023612
Heightened Def Con from 0.0023612 +++++++++++++to 0.0023612
Heightened Def Con from 0.0023612 +++++to 0.0023612
Heightened Def Con from 0.0023612 to 0.0023612
Heightened Def Con from 0.0023612 +to 0.00236121
Heightened Def Con from 0.00236121 to 0.00236121
Heightened Def Con from 0.00236121 ++to 0.00236121
Heightened Def Con from 0.00236121 to 0.00236122
Heightened Def Con from 0.00236122 to 0.00236122
Heightened Def Con from 0.00236122 to 0.00236122
Heightened Def Con from 0.00236122 +++++to 0.00236123
Heightened Def Con from 0.00236123 +to 0.00236123
Heightened Def Con from 0.00236123 +to 0.00236123
Heightened Def Con from 0.00236123 +++++++++++++++++++++++++++to 0.00236125
Heightened Def Con from 0.00236125 +++++++++++++++++++++++to 0.00236125
Heightened Def Con from 0.00236125 ++++++++++++++++++to 0.00236125
Heightened Def Con from 0.00236125 ++++++++++++to 0.00236126
Heightened Def Con from 0.00236126 +++++++++++++++++++++to 0.00236126
Heightened Def Con from 0.00236126 +++++++++++++++++++to 0.00236126
Heightened Def Con from 0.00236126 ++++++++++++to 0.00236126
Heightened Def Con from 0.00236126 +++++++to 0.00236126
Heightened Def Con from 0.00236126 +to 0.00236127
Heightened Def Con from 0.00236127 to 0.00236127
Heightened Def Con from 0.00236127 to 0.00236127
Heightened Def Con from 0.00236127 to 0.00236128
Heightened Def Con from 0.00236128 to 0.00236128
Heightened Def Con from 0.00236128 to 0.00236128
Heightened Def Con from 0.00236128 +to 0.00236128
Heightened Def Con from 0.00236128 +++to 0.00236129
Heightened Def Con from 0.00236129 to 0.00236129
Heightened Def Con from 0.00236129 to 0.00236129
Heightened Def Con from 0.00236129 to 0.00236129
Heightened Def Con from 0.00236129 +to 0.0023613
Heightened Def Con from 0.0023613 to 0.0023613
Heightened Def Con from 0.0023613 to 0.0023613
Heightened Def Con from 0.0023613 to 0.0023613
Heightened Def Con from 0.0023613 to 0.00236131
Heightened Def Con from 0.00236143 ++++++++++++++++++++++++++++++++++++++++to 0.00236145
Heightened Def Con from 0.00236145 ++++++++++++++++++++++++++++++to 0.00236146
Heightened Def Con from 0.00236146 +++++++++++++++++++++to 0.00236146
Heightened Def Con from 0.00236146 ++++++++++++to 0.00236146
Heightened Def Con from 0.00236146 +++to 0.00236147
Heightened Def Con from 0.00236159 to 0.00236159
Heightened Def Con from 0.00236159 +++++++++++++++++++++++to 0.00236159
Heightened Def Con from 0.00236159 ++++++++++++++++++++++++++++++++++++++++to 0.0023616
Heightened Def Con from 0.0023616 ++++++++++++++++++++++++++++++to 0.0023616
Heightened Def Con from 0.0023616 +++++++++++++++++++++to 0.00236161
Heightened Def Con from 0.00236161 +++++++++++to 0.00236161
Heightened Def Con from 0.00236161 +++to 0.00236161
Heightened Def Con from 0.00236161 to 0.00236161
Heightened Def Con from 0.00236175 +++++++++++++++++++++++++++++++++++++++++to 0.00236176
Heightened Def Con from 0.00236176 +++++++++++++++++++++++++++++++to 0.00236176
Heightened Def Con from 0.00236176 +++++++++++++++++++++to 0.00236177
Heightened Def Con from 0.00236177 +++++++++++to 0.00236177
Heightened Def Con from 0.00236177 +to 0.00236177
Heightened Def Con from 0.00236177 to 0.00236177
Heightened Def Con from 0.00236197 ++++++++++++++++++++++++++++++++++++++++to 0.00236198
Heightened Def Con from 0.00236198 +++++++++++++++++++++++++++++++to 0.00236198
Heightened Def Con from 0.00236198 +++++++++++++++++++++to 0.00236199
Heightened Def Con from 0.00236199 +++++++++++to 0.00236199
Heightened Def Con from 0.00236199 ++++to 0.00236199
Heightened Def Con from 0.00236211 +++++++++++++++++++++++++++++++++++++++to 0.00236212
Heightened Def Con from 0.00236212 +++++++++++++++++++++++++++++to 0.00236212
Heightened Def Con from 0.00236212 +++++++++++++++++++++to 0.00236213
Heightened Def Con from 0.00236213 ++++++++++++++to 0.00236213
Heightened Def Con from 0.00236213 ++++++to 0.00236213
Heightened Def Con from 0.00236213 to 0.00236213
Heightened Def Con from 0.00236213 to 0.00236214
Heightened Def Con from 0.0023622 +++++++++++++++++++++++++++++++++++++++to 0.00236221
Heightened Def Con from 0.00236221 +++++++++++++++++++++++++++++++to 0.00236222
Heightened Def Con from 0.00236222 +++++++++++++++++++++to 0.00236222
Heightened Def Con from 0.00236222 ++++++++++++++to 0.00236222
Heightened Def Con from 0.00236222 ++++++to 0.00236223
Heightened Def Con from 0.00236223 +to 0.00236223
Heightened Def Con from 0.00236223 to 0.00236223
Heightened Def Con from 0.00236223 to 0.00236223
Heightened Def Con from 0.00236231 ++++++++++++++++++++++++++++++++++++++++to 0.00236232
Heightened Def Con from 0.00236232 ++++++++++++++++++++++++++++++++to 0.00236233
Heightened Def Con from 0.00236233 ++++++++++++++++++++++to 0.00236233
Heightened Def Con from 0.00236233 ++++++++++++to 0.00236233
Heightened Def Con from 0.00236233 +++to 0.00236233
Heightened Def Con from 0.00236233 to 0.00236233
Heightened Def Con from 0.00236277 +++++++++++++++++++++++to 0.00236278
Heightened Def Con from 0.00236278 ++++++++++++++++to 0.00236278
Heightened Def Con from 0.00236278 ++++++++to 0.00236278
Heightened Def Con from 0.00236278 +++++++to 0.00236279
Heightened Def Con from 0.00236279 ++++to 0.00236279
Heightened Def Con from 0.00236279 +++++++++++++++++++++++++to 0.0023628
Heightened Def Con from 0.0023628 +++++++++++++++++to 0.0023628
Heightened Def Con from 0.0023628 ++++++++to 0.00236281
Heightened Def Con from 0.00236281 ++to 0.00236281
Heightened Def Con from 0.00236281 to 0.00236281
Heightened Def Con from 0.00236291 +++++++++++++++++++++to 0.00236291
Heightened Def Con from 0.00236291 +++++++++++++++++++++to 0.00236292
Heightened Def Con from 0.00236292 ++++++++++++++++++++to 0.00236292
Heightened Def Con from 0.00236292 +++++++++++++++++++++++++to 0.00236293
Heightened Def Con from 0.00236293 ++++++++++++++++to 0.00236293
Heightened Def Con from 0.00236293 +++++++to 0.00236294
Heightened Def Con from 0.00236294 to 0.00236294
Heightened Def Con from 0.00236304 ++++++++++++++++++++++to 0.00236304
Heightened Def Con from 0.00236304 +++++++++++++++++++++to 0.00236305
Heightened Def Con from 0.00236305 +++++++++++++++++++++++++++++to 0.00236306
Heightened Def Con from 0.00236306 ++++++++++++++++++++++to 0.00236306
Heightened Def Con from 0.00236306 +++++++++++++to 0.00236307
Heightened Def Con from 0.00236307 ++++++to 0.00236307
Heightened Def Con from 0.00236307 ++to 0.00236307
[...]
Heightened Def Con from 0.00672585 +++++to 0.00672585
Heightened Def Con from 0.00672585 ++to 0.00672585
Heightened Def Con from 0.00672585 ++++++++++++to 0.00672585
Heightened Def Con from 0.00672586 +++++++++++++++++++to 0.00672586
Heightened Def Con from 0.00672586 +to 0.00672587
Heightened Def Con from 0.00672587 +++++++++++++++to 0.00672587
Heightened Def Con from 0.00672587 +++++++++++++to 0.00672587
Heightened Def Con from 0.00672587 ++++++++++++++++++++to 0.00672587
Heightened Def Con from 0.00672587 ++to 0.00672587
Heightened Def Con from 0.00672587 ++++++++++++++to 0.00672588
Heightened Def Con from 0.00672588 ++++++++++++++++++++++++++++++to 0.00672589
Heightened Def Con from 0.00672589 ++++++++++++++++++to 0.00672589
Heightened Def Con from 0.00672589 +++++++++++++to 0.0067259
Heightened Def Con from 0.0067259 ++++++++++++++++++to 0.0067259
Heightened Def Con from 0.0067259 +++++++++++++++++++to 0.0067259
Heightened Def Con from 0.0067259 +++++++++++++++++++to 0.00672591
Heightened Def Con from 0.00672591 +to 0.00672591
Heightened Def Con from 0.00672591 ++++++++++++++to 0.00672591
Heightened Def Con from 0.00672591 ++++++++++++++++to 0.00672592
Heightened Def Con from 0.00672592 +to 0.00672592
Heightened Def Con from 0.00672592 ++++++++++++++to 0.00672592
Heightened Def Con from 0.00672592 to 0.00672592
Heightened Def Con from 0.00672592 +++++++to 0.00672592
Heightened Def Con from 0.00672592 ++++++to 0.00672592
Heightened Def Con from 0.00672592 to 0.00672593
Heightened Def Con from 0.00672593 +to 0.00672593
Heightened Def Con from 0.00672593 +++++++++++++++++++to 0.00672593
Heightened Def Con from 0.00672593 +++to 0.00672593
Heightened Def Con from 0.00672593 +++++++++++++++++++++to 0.00672593
Heightened Def Con from 0.00672593 +++++++++++++to 0.00672594
Heightened Def Con from 0.00672594 +++++++++++++++++++++to 0.00672595
Heightened Def Con from 0.00672595 ++++++++++++++++++++++++++++++to 0.00672596
Heightened Def Con from 0.00672596 +++++++++++++++++++to 0.00672596
Heightened Def Con from 0.00672596 ++++++++++++++++++to 0.00672597
Heightened Def Con from 0.00672597 ++to 0.00672597
Heightened Def Con from 0.00672597 ++++++++++++++to 0.00672597
Heightened Def Con from 0.00672597 ++to 0.00672598
Heightened Def Con from 0.00672598 +++++++++++++++++++++to 0.00672598
Heightened Def Con from 0.00672598 +++to 0.00672598
Heightened Def Con from 0.00672598 to 0.00672598
Heightened Def Con from 0.00672598 to 0.00672598
Heightened Def Con from 0.00672598 ++++++++to 0.00672598
Heightened Def Con from 0.00672598 ++++++to 0.00672599
Heightened Def Con from 0.00672599 ++++++++++++++++++to 0.00672599
Heightened Def Con from 0.00672599 ++++++++++++++++++++to 0.006726
Heightened Def Con from 0.006726 +++++++to 0.006726
Heightened Def Con from 0.006726 ++++++++++++++++to 0.006726
Heightened Def Con from 0.006726 ++++++++to 0.00672601
Heightened Def Con from 0.00672601 ++to 0.00672601
Heightened Def Con from 0.00672601 ++++to 0.00672601
Heightened Def Con from 0.00672601 ++++++++++++++++++to 0.00672602
Heightened Def Con from 0.00672602 +++++to 0.00672602
Heightened Def Con from 0.00672602 ++++++++to 0.00672602
Heightened Def Con from 0.00672602 +++++++++++++++++++++++to 0.00672603
Heightened Def Con from 0.00672603 +++++++++++++++++++to 0.00672603
Heightened Def Con from 0.00672603 +++++++++++++++to 0.00672604
Heightened Def Con from 0.00672604 ++++++++++++to 0.00672604
Heightened Def Con from 0.00672604 ++++++++++++++++++to 0.00672605
Heightened Def Con from 0.00672605 +++++++++++++++to 0.00672606
Heightened Def Con from 0.00672606 ++to 0.00672606
Heightened Def Con from 0.00672606 +++++++++++++to 0.00672607
Heightened Def Con from 0.00672607 +++++++++++++++++++++++++++++to 0.00672607
Heightened Def Con from 0.00672607 +++++++++++++++++to 0.00672608
Heightened Def Con from 0.00672608 +++++++++++++++++to 0.00672608
Heightened Def Con from 0.00672608 +++++++++++++to 0.00672608
Heightened Def Con from 0.00672608 ++++++++to 0.00672608
Heightened Def Con from 0.00672608 ++++++++++to 0.00672609
Heightened Def Con from 0.00672609 +++++++++++++++++++to 0.00672609
Heightened Def Con from 0.00672609 +++++++++++++++to 0.0067261
Heightened Def Con from 0.0067261 +++++++++++++to 0.0067261
Heightened Def Con from 0.0067261 +++++++++++++to 0.0067261
Heightened Def Con from 0.0067261 ++++++++++++++++++++++++++++++to 0.00672611
Heightened Def Con from 0.00672611 +++++++++++++to 0.00672611
Heightened Def Con from 0.00672611 +to 0.00672612
Heightened Def Con from 0.00672612 ++++++++to 0.00672612
Heightened Def Con from 0.00672612 to 0.00672612
Heightened Def Con from 0.00672612 +to 0.00672612
Heightened Def Con from 0.00672612 +++++++++to 0.00672613
Heightened Def Con from 0.00672613 ++++to 0.00672613
Heightened Def Con from 0.00672613 +++++++++++++++++++to 0.00672613
Heightened Def Con from 0.00672613 +++++++++to 0.00672613
Heightened Def Con from 0.00672613 ++++++++++++++to 0.00672614
Heightened Def Con from 0.00672614 +++++++++++++to 0.00672614
Heightened Def Con from 0.00672614 +++++++++++++to 0.00672615
Heightened Def Con from 0.00672615 +++++++++++++++++++to 0.00672615
Heightened Def Con from 0.00672615 ++++++++++++++++++to 0.00672615
Heightened Def Con from 0.00672615 ++++++++++++++++++to 0.00672616
Heightened Def Con from 0.00672616 to 0.00672616
Heightened Def Con from 0.00672616 ++++++++++++++++++++++++++++++to 0.00672617
Heightened Def Con from 0.00672617 +++++++++++++++++++to 0.00672618
Heightened Def Con from 0.00672618 ++++++++++++++++++++to 0.00672618
Heightened Def Con from 0.00672618 ++++++++++to 0.00672619
Heightened Def Con from 0.00672619 +++++++++++++++to 0.00672619
Heightened Def Con from 0.00672619 ++to 0.00672619
Heightened Def Con from 0.00672619 +++++++++++++++to 0.00672619
Heightened Def Con from 0.00672619 ++++++++to 0.00672619
Heightened Def Con from 0.00672619 ++to 0.00672619
Heightened Def Con from 0.00672619 ++++++++++++++++++++++to 0.0067262
Heightened Def Con from 0.0067262 +++++++++++++++to 0.0067262
Heightened Def Con from 0.0067262 +++++++++++++++++++++to 0.00672621
Heightened Def Con from 0.00672621 +to 0.00672621
Heightened Def Con from 0.00672621 ++++++++++++++++++++++++++++++to 0.00672622
Heightened Def Con from 0.00672622 +++++++++++++++++++to 0.00672622
Heightened Def Con from 0.00672622 ++++++++++++to 0.00672623
Heightened Def Con from 0.00672623 ++++to 0.00672623
Heightened Def Con from 0.00672623 ++++++++++++to 0.00672623
Heightened Def Con from 0.00672623 ++++++++to 0.00672623
Heightened Def Con from 0.00672623 ++to 0.00672623
Heightened Def Con from 0.00672623 +++++++++++++++to 0.00672624
Heightened Def Con from 0.00672624 ++++++to 0.00672624
Heightened Def Con from 0.00672624 +++to 0.00672624
Heightened Def Con from 0.00672624 +to 0.00672625
Heightened Def Con from 0.00672625 ++++++++to 0.00672625
Heightened Def Con from 0.00672625 ++++++++++++to 0.00672625
Heightened Def Con from 0.00672625 ++++++++++++++to 0.00672626
Heightened Def Con from 0.00672626 +++++++++++++++to 0.00672626
Heightened Def Con from 0.00672626 ++++++++++++++++++++++to 0.00672627
Heightened Def Con from 0.00672627 +++++++++++++++++++++to 0.00672627
Heightened Def Con from 0.00672627 +++++to 0.00672628
Heightened Def Con from 0.00672628 +to 0.00672628
Heightened Def Con from 0.00672628 ++++++++to 0.00672628
Heightened Def Con from 0.00672628 ++++to 0.00672628
Heightened Def Con from 0.00672628 ++++++++++to 0.00672628
Heightened Def Con from 0.00672628 +++to 0.00672629
Heightened Def Con from 0.00672629 ++++++++++++++++++++++to 0.00672629
Heightened Def Con from 0.00672629 ++++++++to 0.0067263
Heightened Def Con from 0.0067263 +++++++++++++++++to 0.0067263
Heightened Def Con from 0.0067263 +++++to 0.0067263
Heightened Def Con from 0.0067263 ++++++++to 0.0067263
Heightened Def Con from 0.0067263 +++++++++++++++++to 0.00672631
Heightened Def Con from 0.00672631 +++to 0.00672631
Heightened Def Con from 0.00672631 +++to 0.00672631
Heightened Def Con from 0.00672631 +++++++++++++++++++++to 0.00672632
Heightened Def Con from 0.00672632 ++++++++++++++to 0.00672632
Heightened Def Con from 0.00672632 +++++++++to 0.00672633
Heightened Def Con from 0.00672633 +to 0.00672633
Heightened Def Con from 0.00672633 +++++++++++++++++to 0.00672633
Heightened Def Con from 0.00672633 +++to 0.00672633
Heightened Def Con from 0.00672633 +++++++++++++to 0.00672634
Heightened Def Con from 0.00672634 ++++++++++++++++++++++++++++++++to 0.00672635
Heightened Def Con from 0.00672635 +++++++++++++++++++++++++++++++++to 0.00672637
Heightened Def Con from 0.00672637 ++++++++++++++++++++to 0.00672637
Heightened Def Con from 0.00672637 ++to 0.00672637
Heightened Def Con from 0.00672637 +++++++++++++++++++++++++++++to 0.00672638
Heightened Def Con from 0.00672638 ++++++++++++++++++++++++++++++++to 0.0067264
Heightened Def Con from 0.0067264 +++++++++++++++++++++++++++++++to 0.00672641
Heightened Def Con from 0.00672641 ++++++++++++++++++++++++++++++to 0.00672642
Heightened Def Con from 0.00672642 ++++++++++to 0.00672642
Heightened Def Con from 0.00672642 ++++++++++++++++to 0.00672643
Heightened Def Con from 0.00672643 ++++++++to 0.00672643
Heightened Def Con from 0.00672643 ++++++++++++++++++to 0.00672643
Heightened Def Con from 0.00672643 ++++++++++++++++to 0.00672644
Heightened Def Con from 0.00672644 ++++++++++++to 0.00672645
Heightened Def Con from 0.00672645 ++++++to 0.00672645
Heightened Def Con from 0.00672645 +++to 0.00672645
Heightened Def Con from 0.00672645 to 0.00672645
Heightened Def Con from 0.00672645 ++++++++++++++++++++++++++++++++to 0.00672646
Heightened Def Con from 0.00672646 ++++++++++++++++++to 0.00672647
Heightened Def Con from 0.00672647 +++++++++++++++++++++++++++to 0.00672648
Heightened Def Con from 0.00672648 ++++++++++++++++++++++++++++++to 0.00672649
Heightened Def Con from 0.00672649 ++++++++++++++++++to 0.00672649
Heightened Def Con from 0.00672649 ++++++++++++++++++++++++++++++to 0.0067265
Heightened Def Con from 0.0067265 ++++++++++++++++++++++++++++++to 0.00672651
Heightened Def Con from 0.00672651 +++++++++++++++++++++++++++++++to 0.00672652
Heightened Def Con from 0.00672652 +++++++++++++++++++++++++++++to 0.00672654
Heightened Def Con from 0.00672654 ++++++++++++++++++++++++++++++to 0.00672655
Heightened Def Con from 0.00672655 +++++++++++++to 0.00672655
Heightened Def Con from 0.00672655 +++++++++++++++++++++++++++++to 0.00672656
Heightened Def Con from 0.00672656 ++++++++++++++++++++++++++++++to 0.00672657
Heightened Def Con from 0.00672657 ++++++++++++++++++++++++++++to 0.00672658
Heightened Def Con from 0.00672658 +++++++++++++++++++++++++++++++to 0.0067266
Heightened Def Con from 0.0067266 +++++++++++++++++++to 0.0067266
Heightened Def Con from 0.0067266 +++++++++++to 0.0067266
Heightened Def Con from 0.0067266 ++++++++++++++++++to 0.00672661
Heightened Def Con from 0.00672661 ++++++++++++++++++++++++++++++to 0.00672662
Heightened Def Con from 0.00672662 ++++++++++++++++++++++++++to 0.00672663
Heightened Def Con from 0.00672663 ++++++++++++++++++++++++++++++to 0.00672664
Heightened Def Con from 0.00672664 +++++++++++++++to 0.00672665
Heightened Def Con from 0.00672665 ++++to 0.00672665
Heightened Def Con from 0.00672665 ++++++to 0.00672665
Heightened Def Con from 0.00672665 +++++++to 0.00672665
Heightened Def Con from 0.00672665 ++++++++++++++to 0.00672665
Heightened Def Con from 0.00672665 +++++++++to 0.00672666
Heightened Def Con from 0.00672666 +++++++++++++++++to 0.00672666
Heightened Def Con from 0.00672666 +++++++++++++++++to 0.00672667
Heightened Def Con from 0.00672667 +++++to 0.00672667
Heightened Def Con from 0.00672667 ++++to 0.00672667
Heightened Def Con from 0.00672667 ++++++++++++++++++++++++++++++++to 0.00672668
Heightened Def Con from 0.00672668 +++++++++++++++to 0.00672668
Heightened Def Con from 0.00672668 +++++++++++++++++to 0.00672669
Heightened Def Con from 0.00672669 +++++++++++++++++to 0.00672669
Heightened Def Con from 0.00672669 +++++++++++++++++to 0.0067267
Heightened Def Con from 0.0067267 ++++++++++++++to 0.0067267
Heightened Def Con from 0.0067267 ++++++++++++++++++to 0.0067267
Heightened Def Con from 0.0067267 +++++++++++++++++++++to 0.00672671
Heightened Def Con from 0.00672671 ++++++++++++++to 0.00672671
Heightened Def Con from 0.00672671 ++++++++++to 0.00672671
Heightened Def Con from 0.00672671 ++++++++++++++++++++++++++++++++to 0.00672672
Heightened Def Con from 0.00672672 ++++++++++++++++++++to 0.00672673
Heightened Def Con from 0.00672673 ++++++++++++++++++++++++to 0.00672674
Heightened Def Con from 0.00672674 ++++to 0.00672674
Heightened Def Con from 0.00672674 +++++++++++++to 0.00672674
Heightened Def Con from 0.00672674 ++++++++++++++++++++++to 0.00672675
Heightened Def Con from 0.00672675 ++++++++++to 0.00672675
Heightened Def Con from 0.00672675 ++++++++++++++++to 0.00672675
Heightened Def Con from 0.00672675 +++to 0.00672675
Heightened Def Con from 0.00672675 +++++++++++++++++++++++++to 0.00672676
Heightened Def Con from 0.00672676 +++++++++++++++++++++++++++++++++to 0.00672678
Heightened Def Con from 0.00672678 +++++++++++++++++++to 0.00672679
Heightened Def Con from 0.00672679 +to 0.00672679
Heightened Def Con from 0.00672679 +++++++++++++++to 0.00672679
Heightened Def Con from 0.00672679 to 0.00672679
Heightened Def Con from 0.00672679 ++to 0.0067268
Heightened Def Con from 0.0067268 ++++++++++++++++++++++++++++++to 0.00672681
Heightened Def Con from 0.00672681 ++++++++++++++++++++++to 0.00672681
Heightened Def Con from 0.00672681 ++++++++++++++++++++++++++++++to 0.00672682
Heightened Def Con from 0.00672682 ++++++++++++++++++++++++++++++++to 0.00672683
Heightened Def Con from 0.00672683 ++++++++to 0.00672684
Heightened Def Con from 0.00672684 +to 0.00672684
Heightened Def Con from 0.00672684 +++++++++++++++to 0.00672684
Heightened Def Con from 0.00672684 +++++++++++++++to 0.00672684
Heightened Def Con from 0.00672684 to 0.00672685
Heightened Def Con from 0.00672685 ++++++++++++++++++++to 0.00672685
Heightened Def Con from 0.00672685 ++++to 0.00672685
Heightened Def Con from 0.00672685 +++++++++++++++++++++to 0.00672686
Heightened Def Con from 0.00672686 +++++++++++++++++++++++++++++++to 0.00672687
Heightened Def Con from 0.00672687 ++++++++++++++++++++to 0.00672688
Heightened Def Con from 0.00672688 ++++++++++++++++++to 0.00672688
Heightened Def Con from 0.00672688 +to 0.00672688
Heightened Def Con from 0.00672688 +++++++++++++++++++to 0.00672689
Heightened Def Con from 0.00672689 +++++++++++++++++++to 0.00672689
Heightened Def Con from 0.00672689 to 0.00672689
Heightened Def Con from 0.00672689 +++++++++++++++to 0.0067269
Heightened Def Con from 0.0067269 +++++++++++++++++to 0.0067269
Heightened Def Con from 0.0067269 ++to 0.0067269
Heightened Def Con from 0.0067269 +++++++++++++++++to 0.00672691
Heightened Def Con from 0.00672691 ++++++++++++to 0.00672691
Heightened Def Con from 0.00672691 ++++++++++to 0.00672691
Heightened Def Con from 0.00672691 ++++++++++++++++to 0.00672692
Heightened Def Con from 0.00672692 ++++++++++++++++++to 0.00672692
Heightened Def Con from 0.00672692 +++++++++to 0.00672693
Heightened Def Con from 0.00672693 ++to 0.00672693
Heightened Def Con from 0.00672693 +++++++++++++++++++++++++to 0.00672693
Heightened Def Con from 0.00672693 ++++++++++++++++++++++++++++++to 0.00672695
Heightened Def Con from 0.00672695 ++++++++++++++++++++++++++++++to 0.00672695
Heightened Def Con from 0.00672695 ++++++++++++++++++to 0.00672696
Heightened Def Con from 0.00672696 ++++++++++++++to 0.00672696
Heightened Def Con from 0.00672696 ++++++++++++++to 0.00672697
Heightened Def Con from 0.00672697 +++++++++++++++++++++++to 0.00672697
Heightened Def Con from 0.00672697 ++++++++++++++++++++++to 0.00672698
Heightened Def Con from 0.00672698 ++++++++++++++++++++++++++++++to 0.00672699
Heightened Def Con from 0.00672699 ++++++++++++++++++++++++++++++to 0.006727
Heightened Def Con from 0.006727 ++++++++++++++++++++++++++++++to 0.00672701
Heightened Def Con from 0.00672701 +++++++++++++++++++++++++++++++to 0.00672703
Heightened Def Con from 0.00672703 +++++++++++++++++++++++++++to 0.00672703
Heightened Def Con from 0.00672703 +++++++++++++++++to 0.00672704
Heightened Def Con from 0.00672704 +++++++++++++++to 0.00672704
Heightened Def Con from 0.00672704 +++++++++++++to 0.00672704
Heightened Def Con from 0.00672705 ++++++++to 0.00672705
Heightened Def Con from 0.00672705 +++++++++++++++++to 0.00672705
Heightened Def Con from 0.00672705 +++++++++++to 0.00672706
Heightened Def Con from 0.00672706 ++++++++++++to 0.00672706
Heightened Def Con from 0.00672706 +++++++++++++to 0.00672706
Heightened Def Con from 0.00672706 ++++++to 0.00672707
Heightened Def Con from 0.00672707 +++++++to 0.00672707
Heightened Def Con from 0.00672707 +to 0.00672707
Heightened Def Con from 0.00672707 +++++++++++++++++to 0.00672708
Heightened Def Con from 0.00672708 ++++++++++++++++++++++to 0.00672708
Heightened Def Con from 0.00672708 ++++++++++++++++++to 0.00672709
Heightened Def Con from 0.00672709 +++++to 0.00672709
Heightened Def Con from 0.00672709 +++++++++++++++++++++++++++++++++to 0.00672711
Heightened Def Con from 0.00672711 ++++++++++++++++++++++++++++++++to 0.00672712
Heightened Def Con from 0.00672712 +++++++++++++++++++++++++++++++to 0.00672714
Heightened Def Con from 0.00672714 +++++++++++++++++++++++++to 0.00672715
Heightened Def Con from 0.00672715 ++++++++++++++++++to 0.00672715
Heightened Def Con from 0.00672715 ++to 0.00672715
Heightened Def Con from 0.00672715 ++++++++to 0.00672715
Heightened Def Con from 0.00672715 +to 0.00672715
Heightened Def Con from 0.00672715 ++++++++++++++++to 0.00672716
Heightened Def Con from 0.00672716 +++++++++++++++++++++++++++++to 0.00672716
Heightened Def Con from 0.00672716 ++++++++++++++++++++++to 0.00672717
Heightened Def Con from 0.00672717 +++++++++++++++++++++++++++++++to 0.00672718
Heightened Def Con from 0.00672718 ++++++++++++++++++to 0.00672719
Heightened Def Con from 0.00672719 +++++++++++++++++++++++++++++to 0.0067272
Heightened Def Con from 0.0067272 ++++++++++++++++to 0.0067272
Heightened Def Con from 0.0067272 +++++++++++++++to 0.00672721
Heightened Def Con from 0.00672721 ++++++++++++++++++++to 0.00672721
Heightened Def Con from 0.00672721 +++to 0.00672722
Heightened Def Con from 0.00672722 +++++++++++++++++++to 0.00672722
Heightened Def Con from 0.00672722 +++++++++++++++++++++to 0.00672722
Heightened Def Con from 0.00672722 ++++++++++to 0.00672722
Heightened Def Con from 0.00672722 ++to 0.00672722
Heightened Def Con from 0.00672722 ++to 0.00672723
Heightened Def Con from 0.00672723 +++++++++++++++++to 0.00672723
Heightened Def Con from 0.00672723 ++++++++++to 0.00672723
Heightened Def Con from 0.00672723 +++++++to 0.00672723
Heightened Def Con from 0.00672723 +++++++++++to 0.00672723
Heightened Def Con from 0.00672723 ++to 0.00672723
Heightened Def Con from 0.00672723 +++++++++to 0.00672723
Heightened Def Con from 0.00672723 ++++++++++++++to 0.00672724
Heightened Def Con from 0.00672724 ++++++++++++++++++++++++++++++++to 0.00672726
Heightened Def Con from 0.00672726 ++++++++++++++++++to 0.00672726
Heightened Def Con from 0.00672726 +++++++++++to 0.00672726
Heightened Def Con from 0.00672726 +++to 0.00672726
Heightened Def Con from 0.00672726 +++++++++++to 0.00672727
Heightened Def Con from 0.00672727 ++to 0.00672727
Heightened Def Con from 0.00672727 +to 0.00672727
Heightened Def Con from 0.00672727 ++++++++++++++to 0.00672728
Heightened Def Con from 0.00672728 ++++++++to 0.00672728
Heightened Def Con from 0.00672728 +++++++to 0.00672728
Heightened Def Con from 0.00672728 to 0.00672728
Heightened Def Con from 0.00672728 ++to 0.00672728
Heightened Def Con from 0.00672728 ++++++++++++++++++++++++++++++to 0.0067273
Heightened Def Con from 0.0067273 ++++++++++++++++++++++++++++++to 0.00672731
Heightened Def Con from 0.00672731 ++++++++++++++++++++to 0.00672731
Heightened Def Con from 0.00672731 