Circuit: * C:\Users\Burak\Desktop\EE463\EE463_HardwareProject-M.P.W.U-electronics-\Simulation Drafts\First Draft-Three Phase and Buck converter\First assumption.asc

Per .tran options, skipping operating point for transient analysis.
Changing Tseed to 1e-008
Heightened Def Con from 0.0066094 to 0.0066094
Heightened Def Con from 0.0066094 to 0.0066094
Heightened Def Con from 0.0066094 to 0.0066094
Heightened Def Con from 0.00661061 to 0.00661062
Heightened Def Con from 0.00661062 to 0.00661062
Heightened Def Con from 0.00661062 to 0.00661062
Heightened Def Con from 0.00661085 to 0.00661085
Heightened Def Con from 0.00661085 to 0.00661085
Heightened Def Con from 0.00661085 to 0.00661085
Heightened Def Con from 0.00661134 to 0.00661134
Heightened Def Con from 0.00661135 to 0.00661135
Heightened Def Con from 0.00661135 to 0.00661135
Heightened Def Con from 0.00661135 to 0.00661135
Heightened Def Con from 0.00661135 to 0.00661135
Heightened Def Con from 0.00661135 to 0.00661136
Heightened Def Con from 0.00661136 to 0.00661136
Heightened Def Con from 0.00661136 to 0.00661136
Heightened Def Con from 0.00661136 to 0.00661136
Heightened Def Con from 0.00661136 to 0.00661136
Heightened Def Con from 0.00661138 to 0.00661138
Heightened Def Con from 0.00661139 to 0.00661139
Heightened Def Con from 0.00661139 to 0.00661139
Heightened Def Con from 0.00661139 to 0.00661139
Heightened Def Con from 0.00661139 to 0.00661139
Heightened Def Con from 0.00661369 to 0.00661369
Heightened Def Con from 0.00661369 to 0.00661369
Heightened Def Con from 0.0066137 to 0.0066137
Heightened Def Con from 0.0066137 to 0.0066137
Heightened Def Con from 0.0066137 to 0.0066137
Heightened Def Con from 0.0066137 to 0.0066137
Heightened Def Con from 0.0066137 to 0.0066137
Heightened Def Con from 0.0066137 to 0.0066137
Heightened Def Con from 0.0066138 to 0.0066138
Heightened Def Con from 0.0066138 to 0.0066138
Heightened Def Con from 0.0066138 to 0.0066138
Heightened Def Con from 0.0066138 to 0.0066138
Heightened Def Con from 0.0066138 to 0.0066138
Heightened Def Con from 0.0066138 to 0.0066138
Heightened Def Con from 0.0066138 to 0.00661381
Heightened Def Con from 0.00661381 to 0.00661381
Heightened Def Con from 0.00661998 to 0.00661999
Heightened Def Con from 0.00661999 to 0.00661999
Heightened Def Con from 0.00662 to 0.00662
Heightened Def Con from 0.00662 to 0.00662
Heightened Def Con from 0.0066211 to 0.0066211
Heightened Def Con from 0.00662117 to 0.00662117
Heightened Def Con from 0.00662175 to 0.00662176
Heightened Def Con from 0.0164404 to 0.0164404
Heightened Def Con from 0.0164405 to 0.0164405
Heightened Def Con from 0.0264244 to 0.0264244
Heightened Def Con from 0.0264244 to 0.0264244
Heightened Def Con from 0.026425 to 0.026425
Heightened Def Con from 0.026425 to 0.026425
Heightened Def Con from 0.026425 to 0.026425
Heightened Def Con from 0.026425 to 0.026425
Heightened Def Con from 0.026425 to 0.026425
Heightened Def Con from 0.026425 to 0.026425
Heightened Def Con from 0.026425 to 0.026425
Heightened Def Con from 0.026425 to 0.026425
Heightened Def Con from 0.026425 to 0.026425
Heightened Def Con from 0.0264254 to 0.0264254
Heightened Def Con from 0.0264254 to 0.0264254
Heightened Def Con from 0.0264255 to 0.0264255
Heightened Def Con from 0.0264255 to 0.0264255
Heightened Def Con from 0.0264255 to 0.0264255
Heightened Def Con from 0.0264255 to 0.0264255
Heightened Def Con from 0.0264255 to 0.0264255
Heightened Def Con from 0.0264255 to 0.0264255
Heightened Def Con from 0.0264386 to 0.0264386
Heightened Def Con from 0.0264387 to 0.0264387
Heightened Def Con from 0.0264387 to 0.0264387
Heightened Def Con from 0.0264387 to 0.0264387
Heightened Def Con from 0.0264387 to 0.0264387
Heightened Def Con from 0.0264387 to 0.0264387
Heightened Def Con from 0.0264387 to 0.0264387
Heightened Def Con from 0.0264387 to 0.0264387
Heightened Def Con from 0.0264387 to 0.0264387
Heightened Def Con from 0.0264387 to 0.0264388
Heightened Def Con from 0.0264388 to 0.0264388
Heightened Def Con from 0.0264388 to 0.0264388
Heightened Def Con from 0.0264388 to 0.0264388
Heightened Def Con from 0.0264388 to 0.0264388
Heightened Def Con from 0.0264388 to 0.0264388
Heightened Def Con from 0.0264388 to 0.0264388
Heightened Def Con from 0.0264388 to 0.0264388
Heightened Def Con from 0.0264388 to 0.0264388
Heightened Def Con from 0.0264388 to 0.0264388
Heightened Def Con from 0.0264388 to 0.0264388
Heightened Def Con from 0.0264388 to 0.0264388
Heightened Def Con from 0.0264389 to 0.0264389
Heightened Def Con from 0.0264392 to 0.0264392
Heightened Def Con from 0.0264392 to 0.0264393
Heightened Def Con from 0.0264393 to 0.0264393
Heightened Def Con from 0.0264393 to 0.0264393
Heightened Def Con from 0.0264393 to 0.0264393
Heightened Def Con from 0.0264393 to 0.0264393
Heightened Def Con from 0.0264393 to 0.0264393
Heightened Def Con from 0.0264393 to 0.0264393
Heightened Def Con from 0.0264393 to 0.0264393
Heightened Def Con from 0.0264393 to 0.0264393
Heightened Def Con from 0.0264393 to 0.0264393
Heightened Def Con from 0.0264394 to 0.0264394
Heightened Def Con from 0.0264398 to 0.0264398
Heightened Def Con from 0.0264398 to 0.0264398
Heightened Def Con from 0.0264398 to 0.0264398
Heightened Def Con from 0.0264405 to 0.0264405
Heightened Def Con from 0.0264405 to 0.0264406
Heightened Def Con from 0.0264406 to 0.0264406
Heightened Def Con from 0.0264406 to 0.0264406
Heightened Def Con from 0.0264406 to 0.0264406
Heightened Def Con from 0.0264406 to 0.0264406
Heightened Def Con from 0.0264406 to 0.0264406
Heightened Def Con from 0.0264406 to 0.0264406
Heightened Def Con from 0.0264406 to 0.0264406
Heightened Def Con from 0.0264406 to 0.0264406
Heightened Def Con from 0.0264406 to 0.0264406
Heightened Def Con from 0.0264406 to 0.0264406
Heightened Def Con from 0.0264406 to 0.0264406
Heightened Def Con from 0.0264406 to 0.0264406
Heightened Def Con from 0.0264406 to 0.0264406
Heightened Def Con from 0.0264406 to 0.0264406
Heightened Def Con from 0.0264407 to 0.0264407
Heightened Def Con from 0.0264407 to 0.0264407
Heightened Def Con from 0.0264407 to 0.0264407
Heightened Def Con from 0.0264407 to 0.0264407
Heightened Def Con from 0.0264407 to 0.0264407
Heightened Def Con from 0.0264407 to 0.0264407
Heightened Def Con from 0.0264407 to 0.0264407
Heightened Def Con from 0.0264407 to 0.0264407
Heightened Def Con from 0.0264407 to 0.0264407
Heightened Def Con from 0.0264407 to 0.0264407
Heightened Def Con from 0.0264407 to 0.0264407
Heightened Def Con from 0.0264407 to 0.0264407
Heightened Def Con from 0.0264407 to 0.0264407
Heightened Def Con from 0.0264407 to 0.0264407
Heightened Def Con from 0.0264407 to 0.0264407
Heightened Def Con from 0.0264407 to 0.0264407
Heightened Def Con from 0.0264407 to 0.0264407
Heightened Def Con from 0.026441 to 0.026441
Heightened Def Con from 0.026441 to 0.026441
Heightened Def Con from 0.026441 to 0.026441
Heightened Def Con from 0.026441 to 0.026441
Heightened Def Con from 0.026441 to 0.026441
Heightened Def Con from 0.026441 to 0.026441
Heightened Def Con from 0.026441 to 0.026441
Heightened Def Con from 0.026441 to 0.026441
Heightened Def Con from 0.026441 to 0.026441
Heightened Def Con from 0.026441 to 0.026441
Heightened Def Con from 0.026441 to 0.026441
Heightened Def Con from 0.0264411 to 0.0264411
Heightened Def Con from 0.0264411 to 0.0264411
Heightened Def Con from 0.0264411 to 0.0264411
Heightened Def Con from 0.0264411 to 0.0264411
Heightened Def Con from 0.0264411 to 0.0264411
Heightened Def Con from 0.0264411 to 0.0264411
Heightened Def Con from 0.0264411 to 0.0264411
Heightened Def Con from 0.0264411 to 0.0264411
Heightened Def Con from 0.0264411 to 0.0264411
Heightened Def Con from 0.0264411 to 0.0264411
Heightened Def Con from 0.0264411 to 0.0264411
Heightened Def Con from 0.0264411 to 0.0264411
Heightened Def Con from 0.0264411 to 0.0264411
Heightened Def Con from 0.0264411 to 0.0264411
Heightened Def Con from 0.0264411 to 0.0264412
Heightened Def Con from 0.0264412 to 0.0264412
Heightened Def Con from 0.0264413 to 0.0264413
Heightened Def Con from 0.0264413 to 0.0264413
Heightened Def Con from 0.0264413 to 0.0264413
Heightened Def Con from 0.0264413 to 0.0264413
Heightened Def Con from 0.0264413 to 0.0264413
Heightened Def Con from 0.0264413 to 0.0264413
Heightened Def Con from 0.0264454 to 0.0264454
Heightened Def Con from 0.0264454 to 0.0264454
Heightened Def Con from 0.0264454 to 0.0264454
Heightened Def Con from 0.0264454 to 0.0264454
Heightened Def Con from 0.0264454 to 0.0264454
Heightened Def Con from 0.0264454 to 0.0264454
Heightened Def Con from 0.0264454 to 0.0264454
Heightened Def Con from 0.0264454 to 0.0264454
Heightened Def Con from 0.0264454 to 0.0264454
Heightened Def Con from 0.0264454 to 0.0264454
Heightened Def Con from 0.0264454 to 0.0264454
Heightened Def Con from 0.0264454 to 0.0264454
Heightened Def Con from 0.0264454 to 0.0264454
Heightened Def Con from 0.0264454 to 0.0264454
Heightened Def Con from 0.0264454 to 0.0264454
Heightened Def Con from 0.0264454 to 0.0264454
Heightened Def Con from 0.0264454 to 0.0264454
Heightened Def Con from 0.0264454 to 0.0264454
Heightened Def Con from 0.0264454 to 0.0264454
Heightened Def Con from 0.0264454 to 0.0264454
Heightened Def Con from 0.0264454 to 0.0264454
Heightened Def Con from 0.0264454 to 0.0264454
Heightened Def Con from 0.0264454 to 0.0264454
Heightened Def Con from 0.0264454 to 0.0264454
Heightened Def Con from 0.0264454 to 0.0264454
Heightened Def Con from 0.0264455 to 0.0264455
Heightened Def Con from 0.0264455 to 0.0264455
Heightened Def Con from 0.0264455 to 0.0264455
Heightened Def Con from 0.0264455 to 0.0264455
Heightened Def Con from 0.0264455 to 0.0264455
Heightened Def Con from 0.0264455 to 0.0264455
Heightened Def Con from 0.0264455 to 0.0264455
Heightened Def Con from 0.0264455 to 0.0264455
Heightened Def Con from 0.0264455 to 0.0264455
Heightened Def Con from 0.0264455 to 0.0264455
Heightened Def Con from 0.0264455 to 0.0264455
Heightened Def Con from 0.0264455 to 0.0264455
Heightened Def Con from 0.0264455 to 0.0264455
Heightened Def Con from 0.0264455 to 0.0264455
Heightened Def Con from 0.0264455 to 0.0264455
Heightened Def Con from 0.0264455 to 0.0264455
Heightened Def Con from 0.0264455 to 0.0264455
Heightened Def Con from 0.0264455 to 0.0264455
Heightened Def Con from 0.0264455 to 0.0264455
Heightened Def Con from 0.0264455 to 0.0264455
Heightened Def Con from 0.0264455 to 0.0264455
Heightened Def Con from 0.0264455 to 0.0264455
Heightened Def Con from 0.0264455 to 0.0264455
Heightened Def Con from 0.0264455 to 0.0264455
Heightened Def Con from 0.0264455 to 0.0264455
Heightened Def Con from 0.0264455 to 0.0264455
Heightened Def Con from 0.0264455 to 0.0264455
Heightened Def Con from 0.0264455 to 0.0264455
Heightened Def Con from 0.0264455 to 0.0264455
Heightened Def Con from 0.0264455 to 0.0264455
Heightened Def Con from 0.0264455 to 0.0264455
Heightened Def Con from 0.0264455 to 0.0264455
Heightened Def Con from 0.0264455 to 0.0264455
Heightened Def Con from 0.0264455 to 0.0264455
Heightened Def Con from 0.0264455 to 0.0264455
Heightened Def Con from 0.0264455 to 0.0264455
Heightened Def Con from 0.0264455 to 0.0264455
Heightened Def Con from 0.0264455 to 0.0264455
Heightened Def Con from 0.0264455 to 0.0264455
Heightened Def Con from 0.0264455 to 0.0264455
Heightened Def Con from 0.0264455 to 0.0264455
Heightened Def Con from 0.0264455 to 0.0264455
Heightened Def Con from 0.0264455 to 0.0264455
Heightened Def Con from 0.0264455 to 0.0264455
Heightened Def Con from 0.0264456 to 0.0264456
Heightened Def Con from 0.0264456 to 0.0264456
Heightened Def Con from 0.0264456 to 0.0264456
Heightened Def Con from 0.0264456 to 0.0264456
Heightened Def Con from 0.0264456 to 0.0264456
Heightened Def Con from 0.0264456 to 0.0264456
Heightened Def Con from 0.0264456 to 0.0264456
Heightened Def Con from 0.0264456 to 0.0264456
Heightened Def Con from 0.0264456 to 0.0264456
Heightened Def Con from 0.0264456 to 0.0264456
Heightened Def Con from 0.0264456 to 0.0264456
Heightened Def Con from 0.0264456 to 0.0264456
Heightened Def Con from 0.0264456 to 0.0264456
Heightened Def Con from 0.0264456 to 0.0264456
Heightened Def Con from 0.0264456 to 0.0264456
Heightened Def Con from 0.0264456 to 0.0264456
Heightened Def Con from 0.0264456 to 0.0264456
Heightened Def Con from 0.0264456 to 0.0264456
Heightened Def Con from 0.0264456 to 0.0264456
Heightened Def Con from 0.0264456 to 0.0264456
Heightened Def Con from 0.0264456 to 0.0264456
Heightened Def Con from 0.0264456 to 0.0264456
Heightened Def Con from 0.0264456 to 0.0264456
Heightened Def Con from 0.0264456 to 0.0264456
Heightened Def Con from 0.0264456 to 0.0264456
Heightened Def Con from 0.0264456 to 0.0264456
Heightened Def Con from 0.0264456 to 0.0264456
Heightened Def Con from 0.0264456 to 0.0264456
Heightened Def Con from 0.0264456 to 0.0264456
Heightened Def Con from 0.0264457 to 0.0264457
Heightened Def Con from 0.0264457 to 0.0264457
Heightened Def Con from 0.0264457 to 0.0264457
Heightened Def Con from 0.0264457 to 0.0264457
Heightened Def Con from 0.0264457 to 0.0264457
Heightened Def Con from 0.0264457 to 0.0264457
Heightened Def Con from 0.0264457 to 0.0264457
Heightened Def Con from 0.0264457 to 0.0264457
Heightened Def Con from 0.0264457 to 0.0264457
Heightened Def Con from 0.0264457 to 0.0264457
Heightened Def Con from 0.0264457 to 0.0264457
Heightened Def Con from 0.0264457 to 0.0264458
Heightened Def Con from 0.0264458 to 0.0264458
Heightened Def Con from 0.0264458 to 0.0264458
Heightened Def Con from 0.0264458 to 0.0264458
Heightened Def Con from 0.0264458 to 0.0264458
Heightened Def Con from 0.0264458 to 0.0264458
Heightened Def Con from 0.0264458 to 0.0264458
Heightened Def Con from 0.0264458 to 0.0264458
Heightened Def Con from 0.0264458 to 0.0264458
Heightened Def Con from 0.0264458 to 0.0264458
Heightened Def Con from 0.0264458 to 0.0264458
Heightened Def Con from 0.0264458 to 0.0264458
Heightened Def Con from 0.0264458 to 0.0264458
Heightened Def Con from 0.0264458 to 0.0264458
Heightened Def Con from 0.0264458 to 0.0264458
Heightened Def Con from 0.0264458 to 0.0264458
Heightened Def Con from 0.0264458 to 0.0264458
Heightened Def Con from 0.0264458 to 0.0264458
Heightened Def Con from 0.0264458 to 0.0264458
Heightened Def Con from 0.0264458 to 0.0264458
Heightened Def Con from 0.0264458 to 0.0264458
Heightened Def Con from 0.0264458 to 0.0264458
Heightened Def Con from 0.0264458 +to 0.0264458
Heightened Def Con from 0.0264459 to 0.0264459
Heightened Def Con from 0.0264459 to 0.0264459
Heightened Def Con from 0.0264459 to 0.0264459
Heightened Def Con from 0.0264459 to 0.0264459
Heightened Def Con from 0.0264459 to 0.0264459
Heightened Def Con from 0.0264459 to 0.0264459
Heightened Def Con from 0.0264459 to 0.0264459
Heightened Def Con from 0.0264459 to 0.0264459
Heightened Def Con from 0.0264459 to 0.0264459
Heightened Def Con from 0.0264459 to 0.0264459
Heightened Def Con from 0.0264459 to 0.0264459
Heightened Def Con from 0.0264459 to 0.0264459
Heightened Def Con from 0.0264459 to 0.0264459
Heightened Def Con from 0.0264463 to 0.0264463
Heightened Def Con from 0.0264463 to 0.0264464
Heightened Def Con from 0.0264464 to 0.0264464
Heightened Def Con from 0.0264464 to 0.0264464
Heightened Def Con from 0.0264519 to 0.0264519
Heightened Def Con from 0.0264519 to 0.0264519
Heightened Def Con from 0.0264519 to 0.0264519
Heightened Def Con from 0.0264519 to 0.0264519
Heightened Def Con from 0.0264521 to 0.0264521
Heightened Def Con from 0.0264524 to 0.0264524
Heightened Def Con from 0.0264524 to 0.0264524
Heightened Def Con from 0.0264525 to 0.0264525
Heightened Def Con from 0.0264558 to 0.0264558
Heightened Def Con from 0.0264558 to 0.0264558
Heightened Def Con from 0.0264558 to 0.0264558
Heightened Def Con from 0.0264558 to 0.0264558
Heightened Def Con from 0.0264558 to 0.0264558
Heightened Def Con from 0.0264558 to 0.0264558
Heightened Def Con from 0.0264558 to 0.0264559
Heightened Def Con from 0.0264559 to 0.0264559
Heightened Def Con from 0.0264559 to 0.0264559
Heightened Def Con from 0.0264559 to 0.0264559
Heightened Def Con from 0.0264559 to 0.0264559
Heightened Def Con from 0.0264559 to 0.0264559
Heightened Def Con from 0.0265257 to 0.0265257
Heightened Def Con from 0.0265257 to 0.0265257
Heightened Def Con from 0.0265257 to 0.0265257
Heightened Def Con from 0.0265257 to 0.0265257
Heightened Def Con from 0.0265257 to 0.0265257
Heightened Def Con from 0.0265257 to 0.0265257
Heightened Def Con from 0.0265257 to 0.0265257
Heightened Def Con from 0.0265257 to 0.0265257
Heightened Def Con from 0.0265257 to 0.0265257
Heightened Def Con from 0.0265257 to 0.0265257
Heightened Def Con from 0.0265257 to 0.0265257
Heightened Def Con from 0.0265257 to 0.0265257
Heightened Def Con from 0.0265257 to 0.0265257
Heightened Def Con from 0.0265257 to 0.0265257
Heightened Def Con from 0.0265257 to 0.0265257
Heightened Def Con from 0.0265257 to 0.0265257
Heightened Def Con from 0.0265257 to 0.0265257
Heightened Def Con from 0.0265257 to 0.0265257
Heightened Def Con from 0.0265257 to 0.0265257
Heightened Def Con from 0.0265257 to 0.0265257
Heightened Def Con from 0.0265257 to 0.0265257
Heightened Def Con from 0.0265257 to 0.0265257
Heightened Def Con from 0.0265257 to 0.0265257
Heightened Def Con from 0.0265257 to 0.0265257
Heightened Def Con from 0.0265258 to 0.0265258
Heightened Def Con from 0.0265258 to 0.0265258
Heightened Def Con from 0.0265258 to 0.0265258
Heightened Def Con from 0.0265258 to 0.0265258
Heightened Def Con from 0.0265258 to 0.0265258
Heightened Def Con from 0.0265258 to 0.0265258
Heightened Def Con from 0.0265258 to 0.0265258
Heightened Def Con from 0.0265259 to 0.0265259
Heightened Def Con from 0.0265259 to 0.0265259
Heightened Def Con from 0.0265259 to 0.0265259
Heightened Def Con from 0.0265259 to 0.0265259
Heightened Def Con from 0.0265259 to 0.0265259
Heightened Def Con from 0.0265259 to 0.0265259
Heightened Def Con from 0.0265259 to 0.0265259
Heightened Def Con from 0.0265259 to 0.0265259
Heightened Def Con from 0.0265259 to 0.0265259
Heightened Def Con from 0.0265259 to 0.0265259
Heightened Def Con from 0.0265259 to 0.0265259
Heightened Def Con from 0.0265259 to 0.0265259
Heightened Def Con from 0.0265259 to 0.0265259
Heightened Def Con from 0.0265259 to 0.0265259
Heightened Def Con from 0.0265259 to 0.0265259
Heightened Def Con from 0.0265259 to 0.0265259
Heightened Def Con from 0.0265259 to 0.0265259
Heightened Def Con from 0.0265259 to 0.0265259
Heightened Def Con from 0.0265259 to 0.0265259
Heightened Def Con from 0.0265259 to 0.0265259
Heightened Def Con from 0.0265259 to 0.0265259
Heightened Def Con from 0.0265259 to 0.0265259
Heightened Def Con from 0.0265259 to 0.0265259
Heightened Def Con from 0.0265259 to 0.0265259
Heightened Def Con from 0.0265259 to 0.0265259
Heightened Def Con from 0.026526 to 0.026526
Heightened Def Con from 0.0265373 to 0.0265373
Heightened Def Con from 0.0265373 to 0.0265373
Heightened Def Con from 0.0265373 to 0.0265373
Heightened Def Con from 0.0265373 to 0.0265373
Heightened Def Con from 0.0265373 to 0.0265373
Heightened Def Con from 0.0265374 to 0.0265374
Heightened Def Con from 0.0265374 to 0.0265374
Heightened Def Con from 0.0265374 to 0.0265374
Heightened Def Con from 0.0265374 to 0.0265374
Heightened Def Con from 0.0265374 to 0.0265374
Heightened Def Con from 0.0265374 to 0.0265374
Heightened Def Con from 0.0265374 to 0.0265374
Heightened Def Con from 0.0265374 to 0.0265374
Heightened Def Con from 0.0265374 to 0.0265374
Heightened Def Con from 0.0265374 to 0.0265374
Heightened Def Con from 0.0265374 to 0.0265374
Heightened Def Con from 0.0265374 to 0.0265374
Heightened Def Con from 0.0265374 to 0.0265374
Heightened Def Con from 0.0265374 to 0.0265374
Heightened Def Con from 0.0265374 to 0.0265374
Heightened Def Con from 0.0265374 to 0.0265374
Heightened Def Con from 0.0265374 to 0.0265374
Heightened Def Con from 0.0265374 to 0.0265374
Heightened Def Con from 0.0265374 to 0.0265374
Heightened Def Con from 0.0265375 to 0.0265375
Heightened Def Con from 0.0265375 to 0.0265375
Heightened Def Con from 0.0265375 to 0.0265375
Heightened Def Con from 0.0265375 to 0.0265375
Heightened Def Con from 0.0265375 to 0.0265375
Heightened Def Con from 0.0265377 to 0.0265377
Heightened Def Con from 0.0265377 to 0.0265377
Heightened Def Con from 0.0265377 to 0.0265377
Heightened Def Con from 0.0265377 to 0.0265377
Heightened Def Con from 0.0265377 to 0.0265377
Heightened Def Con from 0.0265377 to 0.0265377
Heightened Def Con from 0.0265377 to 0.0265377
Heightened Def Con from 0.0265377 to 0.0265377
Heightened Def Con from 0.0265377 to 0.0265377
Heightened Def Con from 0.0265377 to 0.0265377
Heightened Def Con from 0.0265377 to 0.0265377
Heightened Def Con from 0.0265377 to 0.0265377
Heightened Def Con from 0.0265377 to 0.0265377
Heightened Def Con from 0.0265377 to 0.0265377
Heightened Def Con from 0.0265377 to 0.0265377
Heightened Def Con from 0.0265378 to 0.0265378
Heightened Def Con from 0.0265388 to 0.0265388
Heightened Def Con from 0.0265388 to 0.0265388
Heightened Def Con from 0.0265388 to 0.0265388
Heightened Def Con from 0.0265389 to 0.0265389
Heightened Def Con from 0.0265389 to 0.0265389
Heightened Def Con from 0.0265389 to 0.0265389
Heightened Def Con from 0.0265389 to 0.0265389
Heightened Def Con from 0.0265389 to 0.0265389
Heightened Def Con from 0.0265389 to 0.0265389
Heightened Def Con from 0.0265389 to 0.0265389
Heightened Def Con from 0.0265389 to 0.0265389
Heightened Def Con from 0.0265389 to 0.0265389
Heightened Def Con from 0.0265389 to 0.0265389
Heightened Def Con from 0.0265389 to 0.0265389
Heightened Def Con from 0.0265389 to 0.0265389
Heightened Def Con from 0.0265389 to 0.0265389
Heightened Def Con from 0.0265389 to 0.0265389
Heightened Def Con from 0.0265389 to 0.0265389
Heightened Def Con from 0.0265389 to 0.0265389
Heightened Def Con from 0.0265389 to 0.0265389
Heightened Def Con from 0.0265389 to 0.0265389
Heightened Def Con from 0.0265389 to 0.0265389
Heightened Def Con from 0.0265389 to 0.0265389
Heightened Def Con from 0.0265389 to 0.0265389
Heightened Def Con from 0.0265389 to 0.0265389
Heightened Def Con from 0.0265389 to 0.0265389
Heightened Def Con from 0.026539 to 0.026539
Heightened Def Con from 0.026539 to 0.026539
Heightened Def Con from 0.026539 to 0.026539
Heightened Def Con from 0.026539 to 0.026539
Heightened Def Con from 0.026539 to 0.026539
Heightened Def Con from 0.026539 to 0.026539
Heightened Def Con from 0.026539 to 0.026539
Heightened Def Con from 0.026539 to 0.026539
Heightened Def Con from 0.026539 to 0.026539
Heightened Def Con from 0.026539 to 0.026539
Heightened Def Con from 0.026539 to 0.026539
Heightened Def Con from 0.026539 to 0.026539
Heightened Def Con from 0.026539 to 0.026539
Heightened Def Con from 0.026539 to 0.026539
Heightened Def Con from 0.026539 to 0.026539
Heightened Def Con from 0.026539 to 0.026539
Heightened Def Con from 0.026539 to 0.026539
Heightened Def Con from 0.026539 to 0.026539
Heightened Def Con from 0.026539 to 0.026539
Heightened Def Con from 0.026539 to 0.026539
Heightened Def Con from 0.026539 to 0.026539
Heightened Def Con from 0.026539 to 0.026539
Heightened Def Con from 0.026539 to 0.026539
Heightened Def Con from 0.026539 to 0.0265391
Heightened Def Con from 0.0265391 to 0.0265391
Heightened Def Con from 0.0265391 to 0.0265391
Heightened Def Con from 0.0265391 to 0.0265391
Heightened Def Con from 0.0265391 to 0.0265391
Heightened Def Con from 0.0265391 to 0.0265391
Heightened Def Con from 0.0265391 to 0.0265391
Heightened Def Con from 0.0265393 to 0.0265393
Heightened Def Con from 0.0265393 to 0.0265393
Heightened Def Con from 0.0265393 to 0.0265393
Heightened Def Con from 0.0265393 to 0.0265393
Heightened Def Con from 0.0265393 to 0.0265393
Heightened Def Con from 0.0265393 to 0.0265393
Heightened Def Con from 0.0265393 to 0.0265393
Heightened Def Con from 0.0265393 to 0.0265393
Heightened Def Con from 0.0265393 to 0.0265393
Heightened Def Con from 0.0265393 to 0.0265393
Heightened Def Con from 0.0265393 to 0.0265393
Heightened Def Con from 0.0265393 to 0.0265393
Heightened Def Con from 0.0265393 to 0.0265393
Heightened Def Con from 0.0265393 to 0.0265393
Heightened Def Con from 0.0265393 to 0.0265393
Heightened Def Con from 0.0265393 to 0.0265393
Heightened Def Con from 0.0265393 to 0.0265393
Heightened Def Con from 0.0265393 to 0.0265393
Heightened Def Con from 0.0265393 to 0.0265393
Heightened Def Con from 0.0265393 to 0.0265393
Heightened Def Con from 0.0265393 to 0.0265393
Heightened Def Con from 0.0265393 to 0.0265393
Heightened Def Con from 0.0265393 to 0.0265393
Heightened Def Con from 0.0265394 to 0.0265394
Heightened Def Con from 0.0265394 to 0.0265394
Heightened Def Con from 0.0265394 to 0.0265394
Heightened Def Con from 0.0265394 to 0.0265394
Heightened Def Con from 0.0265394 to 0.0265394
Heightened Def Con from 0.0265394 to 0.0265394
Heightened Def Con from 0.0265394 to 0.0265394
Heightened Def Con from 0.0265394 to 0.0265394
Heightened Def Con from 0.0265394 to 0.0265394
Heightened Def Con from 0.0265394 to 0.0265394
Heightened Def Con from 0.0265394 to 0.0265394
Heightened Def Con from 0.0265394 to 0.0265394
Heightened Def Con from 0.0265394 to 0.0265394
Heightened Def Con from 0.0265394 to 0.0265394
Heightened Def Con from 0.0265395 to 0.0265395
Heightened Def Con from 0.0265395 to 0.0265395
Heightened Def Con from 0.0265395 to 0.0265395
Heightened Def Con from 0.0265395 to 0.0265395
Heightened Def Con from 0.0265395 to 0.0265395
Heightened Def Con from 0.0265395 to 0.0265395
Heightened Def Con from 0.0265395 to 0.0265395
Heightened Def Con from 0.0265395 to 0.0265395
Heightened Def Con from 0.0265395 to 0.0265395
Heightened Def Con from 0.0265395 to 0.0265395
Heightened Def Con from 0.0265395 to 0.0265395
Heightened Def Con from 0.0265395 to 0.0265395
Heightened Def Con from 0.0265395 to 0.0265395
Heightened Def Con from 0.0265395 to 0.0265395
Heightened Def Con from 0.0265395 to 0.0265395
Heightened Def Con from 0.0265395 to 0.0265395
Heightened Def Con from 0.0265395 to 0.0265395
Heightened Def Con from 0.0265395 to 0.0265395
Heightened Def Con from 0.0265395 to 0.0265395
Heightened Def Con from 0.0265395 to 0.0265395
Heightened Def Con from 0.0265395 to 0.0265395
Heightened Def Con from 0.0265396 to 0.0265396
Heightened Def Con from 0.0265396 to 0.0265396
Heightened Def Con from 0.0265396 to 0.0265396
Heightened Def Con from 0.0265396 to 0.0265396
Heightened Def Con from 0.0265396 to 0.0265396
Heightened Def Con from 0.0265396 to 0.0265396
Heightened Def Con from 0.0265396 to 0.0265396
Heightened Def Con from 0.0265396 to 0.0265396
Heightened Def Con from 0.0265396 to 0.0265396
Heightened Def Con from 0.0265396 to 0.0265396
Heightened Def Con from 0.0265396 to 0.0265396
Heightened Def Con from 0.0265396 to 0.0265396
Heightened Def Con from 0.0265396 to 0.0265396
Heightened Def Con from 0.0265396 to 0.0265396
Heightened Def Con from 0.0265396 to 0.0265396
Heightened Def Con from 0.0265396 to 0.0265396
Heightened Def Con from 0.0265396 to 0.0265396
Heightened Def Con from 0.0265396 to 0.0265396
Heightened Def Con from 0.0265396 to 0.0265396
Heightened Def Con from 0.0265396 to 0.0265396
Heightened Def Con from 0.0265396 to 0.0265396
Heightened Def Con from 0.0265396 to 0.0265396
Heightened Def Con from 0.0265396 to 0.0265396
Heightened Def Con from 0.0265396 to 0.0265396
Heightened Def Con from 0.0265396 to 0.0265396
Heightened Def Con from 0.0265396 to 0.0265396
Heightened Def Con from 0.0265397 to 0.0265397
Heightened Def Con from 0.0265397 to 0.0265397
Heightened Def Con from 0.0265397 to 0.0265397
Heightened Def Con from 0.0265397 to 0.0265397
Heightened Def Con from 0.0265397 to 0.0265397
Heightened Def Con from 0.0265397 to 0.0265397
Heightened Def Con from 0.0265397 to 0.0265397
Heightened Def Con from 0.0265397 to 0.0265397
Heightened Def Con from 0.0265397 to 0.0265397
Heightened Def Con from 0.0265397 to 0.0265397
Heightened Def Con from 0.0265397 to 0.0265397
Heightened Def Con from 0.0265397 to 0.0265397
Heightened Def Con from 0.0265397 to 0.0265397
Heightened Def Con from 0.0265397 to 0.0265397
Heightened Def Con from 0.0265397 to 0.0265397
Heightened Def Con from 0.0265397 to 0.0265397
Heightened Def Con from 0.0265397 to 0.0265397
Heightened Def Con from 0.0265397 to 0.0265397
Heightened Def Con from 0.0265398 to 0.0265398
Heightened Def Con from 0.0265398 to 0.0265398
Heightened Def Con from 0.0265398 to 0.0265398
Heightened Def Con from 0.0265398 to 0.0265398
Heightened Def Con from 0.0265398 to 0.0265398
Heightened Def Con from 0.0265398 to 0.0265398
Heightened Def Con from 0.0265398 to 0.0265398
Heightened Def Con from 0.0265398 to 0.0265398
Heightened Def Con from 0.0265398 to 0.0265398
Heightened Def Con from 0.0265398 to 0.0265398
Heightened Def Con from 0.0265398 to 0.0265398
Heightened Def Con from 0.0265398 to 0.0265398
Heightened Def Con from 0.0265482 to 0.0265482
Heightened Def Con from 0.0265482 to 0.0265482
Heightened Def Con from 0.0265482 to 0.0265482
Heightened Def Con from 0.0265824 to 0.0265824
Heightened Def Con from 0.0265824 to 0.0265824
Heightened Def Con from 0.0265824 to 0.0265824
Heightened Def Con from 0.0265824 to 0.0265824
Heightened Def Con from 0.0265824 to 0.0265824
Heightened Def Con from 0.0265824 to 0.0265824
Heightened Def Con from 0.0265824 to 0.0265824
Heightened Def Con from 0.0265824 to 0.0265824
Heightened Def Con from 0.0265824 to 0.0265824
Heightened Def Con from 0.0265824 to 0.0265824
Heightened Def Con from 0.0265824 to 0.0265824
Heightened Def Con from 0.0265824 to 0.0265824
Heightened Def Con from 0.0265824 to 0.0265824
Heightened Def Con from 0.0265824 to 0.0265824
Heightened Def Con from 0.0265824 to 0.0265824
Heightened Def Con from 0.0265824 to 0.0265824
Heightened Def Con from 0.0265824 to 0.0265824
Heightened Def Con from 0.0265824 to 0.0265824
Heightened Def Con from 0.0265825 to 0.0265825
Heightened Def Con from 0.0265825 to 0.0265825
Heightened Def Con from 0.0265825 to 0.0265825
Heightened Def Con from 0.0265825 to 0.0265825
Heightened Def Con from 0.0265825 to 0.0265825
Heightened Def Con from 0.0265825 to 0.0265825
Heightened Def Con from 0.0265825 to 0.0265825
Heightened Def Con from 0.0265825 to 0.0265825
Heightened Def Con from 0.0265825 to 0.0265825
Heightened Def Con from 0.0265825 to 0.0265825
Heightened Def Con from 0.0265825 to 0.0265825
Heightened Def Con from 0.0265826 to 0.0265826
Heightened Def Con from 0.0265826 to 0.0265826
Heightened Def Con from 0.0265826 to 0.0265826
Heightened Def Con from 0.0265826 to 0.0265826
Heightened Def Con from 0.0265826 to 0.0265826
Heightened Def Con from 0.0265826 to 0.0265826
Heightened Def Con from 0.0265826 to 0.0265826
Heightened Def Con from 0.0265826 to 0.0265826
Heightened Def Con from 0.0265826 to 0.0265827
Heightened Def Con from 0.0265827 to 0.0265827
Heightened Def Con from 0.0265827 to 0.0265827
Heightened Def Con from 0.0265827 to 0.0265827
Heightened Def Con from 0.0265827 to 0.0265827
Heightened Def Con from 0.0265827 to 0.0265827
Heightened Def Con from 0.0265827 to 0.0265827
Heightened Def Con from 0.0265828 to 0.0265828
Heightened Def Con from 0.0265828 to 0.0265828
Heightened Def Con from 0.0265828 to 0.0265828
Heightened Def Con from 0.0265828 to 0.0265828
Heightened Def Con from 0.0265828 to 0.0265828
Heightened Def Con from 0.0265828 to 0.0265828
Heightened Def Con from 0.0265828 to 0.0265828
Heightened Def Con from 0.0265828 to 0.0265828
Heightened Def Con from 0.0265828 to 0.0265828
Heightened Def Con from 0.0265828 to 0.0265828
Heightened Def Con from 0.0265828 to 0.0265828
Heightened Def Con from 0.0265828 to 0.0265828
Heightened Def Con from 0.0265828 to 0.0265828
Heightened Def Con from 0.0265828 to 0.0265828
Heightened Def Con from 0.0265828 to 0.0265828
Heightened Def Con from 0.0265828 to 0.0265828
Heightened Def Con from 0.0265828 to 0.0265828
Heightened Def Con from 0.0265828 to 0.0265828
Heightened Def Con from 0.0265828 to 0.0265828
Heightened Def Con from 0.0265828 to 0.0265828
Heightened Def Con from 0.0265828 to 0.0265828
Heightened Def Con from 0.0265828 to 0.0265828
Heightened Def Con from 0.0265828 to 0.0265828
Heightened Def Con from 0.0265828 to 0.0265828
Heightened Def Con from 0.0265828 to 0.0265828
Heightened Def Con from 0.0265828 to 0.0265828
Heightened Def Con from 0.0265828 to 0.0265828
Heightened Def Con from 0.0265834 to 0.0265834
Heightened Def Con from 0.0265834 to 0.0265834
Heightened Def Con from 0.0265834 to 0.0265834
Heightened Def Con from 0.0265834 to 0.0265834
Heightened Def Con from 0.0265834 to 0.0265834
Heightened Def Con from 0.0265834 to 0.0265834
Heightened Def Con from 0.0265834 to 0.0265834
Heightened Def Con from 0.0265834 to 0.0265834
Heightened Def Con from 0.0265834 to 0.0265835
Heightened Def Con from 0.0265835 to 0.0265835
Heightened Def Con from 0.0265835 to 0.0265835
Heightened Def Con from 0.0265835 to 0.0265835
Heightened Def Con from 0.0265835 to 0.0265835
Heightened Def Con from 0.0265835 to 0.0265835
Heightened Def Con from 0.0265835 to 0.0265835
Heightened Def Con from 0.0265835 to 0.0265835
Heightened Def Con from 0.0265835 to 0.0265835
Heightened Def Con from 0.0265835 to 0.0265835
Heightened Def Con from 0.0265835 to 0.0265835
Heightened Def Con from 0.0265835 to 0.0265835
Heightened Def Con from 0.0265835 to 0.0265835
Heightened Def Con from 0.0265835 to 0.0265835
Heightened Def Con from 0.0265835 to 0.0265835
Heightened Def Con from 0.0265835 to 0.0265835
Heightened Def Con from 0.0265835 to 0.0265835
Heightened Def Con from 0.0265835 to 0.0265835
Heightened Def Con from 0.0265835 to 0.0265835
Heightened Def Con from 0.0265835 to 0.0265835
Heightened Def Con from 0.0265835 to 0.0265835
Heightened Def Con from 0.0265835 to 0.0265835
Heightened Def Con from 0.0265835 to 0.0265835
Heightened Def Con from 0.0265835 to 0.0265835
Heightened Def Con from 0.0265836 to 0.0265836
Heightened Def Con from 0.0265836 to 0.0265836
Heightened Def Con from 0.0265836 to 0.0265836
Heightened Def Con from 0.0265836 to 0.0265836
Heightened Def Con from 0.0265836 to 0.0265836
Heightened Def Con from 0.0265836 to 0.0265836
Heightened Def Con from 0.0265836 to 0.0265836
Heightened Def Con from 0.0265836 to 0.0265836
Heightened Def Con from 0.0265836 to 0.0265836
Heightened Def Con from 0.0265836 to 0.0265836
Heightened Def Con from 0.0265836 to 0.0265836
Heightened Def Con from 0.0265836 to 0.0265836
Heightened Def Con from 0.0265836 to 0.0265836
Heightened Def Con from 0.0265837 to 0.0265837
Heightened Def Con from 0.0265837 to 0.0265837
Heightened Def Con from 0.0265837 to 0.0265837
Heightened Def Con from 0.0265837 to 0.0265837
Heightened Def Con from 0.0265837 to 0.0265837
Heightened Def Con from 0.0265837 to 0.0265837
Heightened Def Con from 0.0265837 to 0.0265837
Heightened Def Con from 0.0265838 to 0.0265838
Heightened Def Con from 0.0265838 to 0.0265838
Heightened Def Con from 0.0265838 to 0.0265838
Heightened Def Con from 0.0265838 to 0.0265838
Heightened Def Con from 0.0265838 to 0.0265838
Heightened Def Con from 0.0265838 to 0.0265838
Heightened Def Con from 0.0265838 to 0.0265838
Heightened Def Con from 0.0265838 to 0.0265838
Heightened Def Con from 0.0265839 to 0.0265839
Heightened Def Con from 0.0265839 to 0.0265839
Heightened Def Con from 0.0265839 to 0.0265839
Heightened Def Con from 0.0265839 to 0.0265839
Heightened Def Con from 0.0265839 to 0.0265839
Heightened Def Con from 0.0265839 to 0.0265839
Heightened Def Con from 0.0265839 to 0.0265839
Heightened Def Con from 0.0265839 to 0.0265839
Heightened Def Con from 0.0265839 to 0.0265839
Heightened Def Con from 0.0265839 to 0.0265839
Heightened Def Con from 0.0265839 to 0.0265839
Heightened Def Con from 0.0265839 to 0.0265839
Heightened Def Con from 0.0265839 to 0.0265839
Heightened Def Con from 0.0265839 to 0.0265839
Heightened Def Con from 0.0265839 to 0.0265839
Heightened Def Con from 0.0265839 to 0.0265839
Heightened Def Con from 0.0265839 to 0.0265839
Heightened Def Con from 0.0265839 to 0.0265839
Heightened Def Con from 0.0265839 to 0.0265839
Heightened Def Con from 0.026584 to 0.026584
Heightened Def Con from 0.0265848 to 0.0265848
Heightened Def Con from 0.0265848 to 0.0265848
Heightened Def Con from 0.0265848 to 0.0265848
Heightened Def Con from 0.0265848 to 0.0265848
Heightened Def Con from 0.0265848 to 0.0265848
Heightened Def Con from 0.0265848 to 0.0265848
Heightened Def Con from 0.0265848 to 0.0265848
Heightened Def Con from 0.0265848 to 0.0265848
Heightened Def Con from 0.0265848 to 0.0265848
Heightened Def Con from 0.0265848 to 0.0265848
Heightened Def Con from 0.0265848 to 0.0265848
Heightened Def Con from 0.0363794 to 0.0363794
Heightened Def Con from 0.0363794 to 0.0363794
Heightened Def Con from 0.0363794 to 0.0363794
Heightened Def Con from 0.0363794 to 0.0363794
Heightened Def Con from 0.0363794 to 0.0363794
Heightened Def Con from 0.0363794 to 0.0363794
Heightened Def Con from 0.0363794 to 0.0363794
Heightened Def Con from 0.0363794 to 0.0363794
Heightened Def Con from 0.0363794 to 0.0363794
Heightened Def Con from 0.0363794 to 0.0363794
Heightened Def Con from 0.0363794 to 0.0363794
Heightened Def Con from 0.0363794 to 0.0363794
Heightened Def Con from 0.0364353 to 0.0364353
Heightened Def Con from 0.0364353 to 0.0364353
Heightened Def Con from 0.0364353 to 0.0364353
Heightened Def Con from 0.0364386 to 0.0364386
Heightened Def Con from 0.0364386 to 0.0364386
Heightened Def Con from 0.0364386 to 0.0364386
Heightened Def Con from 0.0364386 to 0.0364386
Heightened Def Con from 0.0364386 to 0.0364386
Heightened Def Con from 0.0364386 to 0.0364386
Heightened Def Con from 0.0364386 to 0.0364386
Heightened Def Con from 0.0364386 to 0.0364386
Heightened Def Con from 0.0364386 to 0.0364386
Heightened Def Con from 0.0364386 to 0.0364386
Heightened Def Con from 0.0364386 to 0.0364386
Heightened Def Con from 0.0364386 to 0.0364386
Heightened Def Con from 0.0364388 to 0.0364388
Heightened Def Con from 0.0364388 to 0.0364388
Heightened Def Con from 0.0364388 to 0.0364388
Heightened Def Con from 0.0364388 to 0.0364388
Heightened Def Con from 0.0364388 to 0.0364388
Heightened Def Con from 0.0364389 to 0.0364389
Heightened Def Con from 0.0364389 to 0.0364389
Heightened Def Con from 0.0364389 to 0.0364389
Heightened Def Con from 0.0364389 to 0.0364389
Heightened Def Con from 0.0364389 to 0.0364389
Heightened Def Con from 0.036439 to 0.036439
Heightened Def Con from 0.036439 to 0.036439
Heightened Def Con from 0.036439 to 0.036439
Heightened Def Con from 0.036439 to 0.036439
Heightened Def Con from 0.036439 to 0.036439
Heightened Def Con from 0.036439 to 0.036439
Heightened Def Con from 0.036439 to 0.036439
Heightened Def Con from 0.036439 to 0.036439
Heightened Def Con from 0.036439 to 0.036439
Heightened Def Con from 0.036439 to 0.036439
Heightened Def Con from 0.0364391 to 0.0364391
Heightened Def Con from 0.0364391 to 0.0364391
Heightened Def Con from 0.0364391 to 0.0364391
Heightened Def Con from 0.0364391 to 0.0364391
Heightened Def Con from 0.0364391 to 0.0364391
Heightened Def Con from 0.0364391 to 0.0364391
Heightened Def Con from 0.0364391 to 0.0364391
Heightened Def Con from 0.0364391 to 0.0364391
Heightened Def Con from 0.0364391 to 0.0364391
Heightened Def Con from 0.0364391 to 0.0364391
Heightened Def Con from 0.0364404 to 0.0364404
Heightened Def Con from 0.0364405 to 0.0364405
Heightened Def Con from 0.0364405 to 0.0364405
Heightened Def Con from 0.0364405 to 0.0364405
Heightened Def Con from 0.0364405 to 0.0364405
Heightened Def Con from 0.0364417 to 0.0364417
Heightened Def Con from 0.0364417 to 0.0364417
Heightened Def Con from 0.0364423 to 0.0364423
Heightened Def Con from 0.0364423 to 0.0364423
Heightened Def Con from 0.0364423 to 0.0364423
Heightened Def Con from 0.0364423 to 0.0364423
Heightened Def Con from 0.0364423 to 0.0364423
Heightened Def Con from 0.0364423 to 0.0364423
Heightened Def Con from 0.0364506 to 0.0364506
Heightened Def Con from 0.0364506 to 0.0364506
Heightened Def Con from 0.0364506 to 0.0364506
Heightened Def Con from 0.0364506 to 0.0364506
Heightened Def Con from 0.0364506 to 0.0364506
Heightened Def Con from 0.0364506 to 0.0364506
Heightened Def Con from 0.0364506 to 0.0364506
Heightened Def Con from 0.0364507 to 0.0364507
Heightened Def Con from 0.0364522 to 0.0364522
Heightened Def Con from 0.0364522 to 0.0364522
Heightened Def Con from 0.0364522 to 0.0364522
Heightened Def Con from 0.0364522 to 0.0364522
Heightened Def Con from 0.0364522 to 0.0364523
Heightened Def Con from 0.0364535 to 0.0364535
Heightened Def Con from 0.0364538 to 0.0364538
Heightened Def Con from 0.0364538 to 0.0364538
Heightened Def Con from 0.0364538 to 0.0364538
Heightened Def Con from 0.0364538 to 0.0364538
Heightened Def Con from 0.0364538 to 0.0364538
Heightened Def Con from 0.0364538 to 0.0364538
Heightened Def Con from 0.0364538 to 0.0364538
Heightened Def Con from 0.0364538 to 0.0364538
Heightened Def Con from 0.0364538 to 0.0364538
Heightened Def Con from 0.0364538 to 0.0364538
Heightened Def Con from 0.0364538 to 0.0364538
Heightened Def Con from 0.0364542 to 0.0364542
Heightened Def Con from 0.0364542 to 0.0364542
Heightened Def Con from 0.0364542 to 0.0364542
Heightened Def Con from 0.0364542 to 0.0364542
Heightened Def Con from 0.0364542 to 0.0364542
Heightened Def Con from 0.0364543 to 0.0364543
Heightened Def Con from 0.0364543 to 0.0364543
Heightened Def Con from 0.0364543 to 0.0364543
Heightened Def Con from 0.0364543 to 0.0364543
Heightened Def Con from 0.0364543 to 0.0364543
Heightened Def Con from 0.0364543 to 0.0364543
Heightened Def Con from 0.0364543 to 0.0364543
Heightened Def Con from 0.0364546 to 0.0364546
Heightened Def Con from 0.0364546 to 0.0364546
Heightened Def Con from 0.0364546 to 0.0364546
Heightened Def Con from 0.0364546 to 0.0364546
Heightened Def Con from 0.0364546 to 0.0364546
Heightened Def Con from 0.0364546 to 0.0364546
Heightened Def Con from 0.0364546 to 0.0364546
Heightened Def Con from 0.0364546 to 0.0364546
Heightened Def Con from 0.0364575 to 0.0364575
Heightened Def Con from 0.0364575 to 0.0364575
Heightened Def Con from 0.036468 to 0.036468
Heightened Def Con from 0.036468 to 0.036468
Heightened Def Con from 0.0364683 to 0.0364683
Heightened Def Con from 0.0364683 to 0.0364683
Heightened Def Con from 0.0364683 to 0.0364683
Heightened Def Con from 0.0364683 to 0.0364683
Heightened Def Con from 0.0364683 to 0.0364683
Heightened Def Con from 0.0364683 to 0.0364683
Heightened Def Con from 0.0364683 to 0.0364683
Heightened Def Con from 0.0364683 to 0.0364683
Heightened Def Con from 0.0364684 to 0.0364684
Heightened Def Con from 0.0364684 to 0.0364684
Heightened Def Con from 0.0364684 to 0.0364684
Heightened Def Con from 0.0364684 to 0.0364684
Heightened Def Con from 0.0364684 to 0.0364684
Heightened Def Con from 0.0364684 to 0.0364684
Heightened Def Con from 0.0364685 to 0.0364685
Heightened Def Con from 0.0364685 to 0.0364685
Heightened Def Con from 0.0364685 to 0.0364685
Heightened Def Con from 0.0364687 to 0.0364687
Heightened Def Con from 0.0364687 to 0.0364687
Heightened Def Con from 0.0367374 to 0.0367374
Heightened Def Con from 0.0367375 to 0.0367375
Heightened Def Con from 0.0367375 to 0.0367375
Heightened Def Con from 0.0367376 to 0.0367377
Heightened Def Con from 0.0367379 to 0.0367379
Heightened Def Con from 0.0367379 to 0.0367379
Heightened Def Con from 0.0367379 to 0.036738
Heightened Def Con from 0.036738 to 0.036738
Heightened Def Con from 0.036738 to 0.036738
Heightened Def Con from 0.036738 to 0.036738
Heightened Def Con from 0.036738 to 0.036738
Heightened Def Con from 0.036738 to 0.036738
Heightened Def Con from 0.036738 to 0.036738
Heightened Def Con from 0.036738 to 0.036738
Heightened Def Con from 0.036738 to 0.036738
Heightened Def Con from 0.036738 to 0.036738
Heightened Def Con from 0.036738 to 0.036738
Heightened Def Con from 0.036738 to 0.036738
Heightened Def Con from 0.036738 to 0.036738
Heightened Def Con from 0.036738 to 0.036738
Heightened Def Con from 0.0367389 to 0.0367389
Heightened Def Con from 0.0464223 to 0.0464223
Heightened Def Con from 0.0464223 to 0.0464223
Heightened Def Con from 0.0464223 to 0.0464223
Heightened Def Con from 0.0464223 to 0.0464223
Heightened Def Con from 0.0464223 to 0.0464223
Heightened Def Con from 0.0464223 to 0.0464223
Heightened Def Con from 0.0464223 to 0.0464223
Heightened Def Con from 0.0464223 to 0.0464223
Heightened Def Con from 0.0464223 to 0.0464223
Heightened Def Con from 0.0464223 to 0.0464223
Heightened Def Con from 0.0464223 to 0.0464223
Heightened Def Con from 0.0464224 to 0.0464224
Heightened Def Con from 0.0464224 to 0.0464224
Heightened Def Con from 0.0464224 to 0.0464224
Heightened Def Con from 0.0464224 to 0.0464224
Heightened Def Con from 0.0464224 to 0.0464224
Heightened Def Con from 0.0464224 to 0.0464224
Heightened Def Con from 0.0464224 to 0.0464224
Heightened Def Con from 0.0464224 to 0.0464224
Heightened Def Con from 0.0464224 to 0.0464224
Heightened Def Con from 0.0464224 to 0.0464224
Heightened Def Con from 0.0464224 to 0.0464224
Heightened Def Con from 0.0464224 to 0.0464224
Heightened Def Con from 0.0464225 to 0.0464225
Heightened Def Con from 0.0464225 to 0.0464225
Heightened Def Con from 0.0464269 to 0.0464269
Heightened Def Con from 0.0464269 to 0.0464269
Heightened Def Con from 0.0464269 to 0.0464269
Heightened Def Con from 0.0464269 to 0.0464269
Heightened Def Con from 0.0464269 to 0.0464269
Heightened Def Con from 0.0464269 to 0.0464269
Heightened Def Con from 0.0464269 to 0.0464269
Heightened Def Con from 0.0464269 to 0.0464269
Heightened Def Con from 0.046427 to 0.046427
Heightened Def Con from 0.046427 to 0.046427
Heightened Def Con from 0.046427 to 0.046427
Heightened Def Con from 0.046427 to 0.046427
Heightened Def Con from 0.046427 to 0.046427
Heightened Def Con from 0.046427 to 0.046427
Heightened Def Con from 0.046427 to 0.046427
Heightened Def Con from 0.0464271 to 0.0464271
Heightened Def Con from 0.0464271 to 0.0464271
Heightened Def Con from 0.0464271 to 0.0464271
Heightened Def Con from 0.0464272 to 0.0464272
Heightened Def Con from 0.0464272 to 0.0464272
Heightened Def Con from 0.0464272 to 0.0464272
Heightened Def Con from 0.0464272 to 0.0464272
Heightened Def Con from 0.0464272 to 0.0464272
Heightened Def Con from 0.0464272 to 0.0464272
Heightened Def Con from 0.0464272 to 0.0464272
Heightened Def Con from 0.0464272 to 0.0464272
Heightened Def Con from 0.0464272 to 0.0464272
Heightened Def Con from 0.0464272 to 0.0464272
Heightened Def Con from 0.0464272 to 0.0464272
Heightened Def Con from 0.0464272 to 0.0464272
Heightened Def Con from 0.0464272 to 0.0464272
Heightened Def Con from 0.0464272 to 0.0464272
Heightened Def Con from 0.0464273 to 0.0464273
Heightened Def Con from 0.0464273 to 0.0464273
Heightened Def Con from 0.0464273 to 0.0464273
Heightened Def Con from 0.0464273 to 0.0464273
Heightened Def Con from 0.0464273 to 0.0464273
Heightened Def Con from 0.0464273 to 0.0464273
Heightened Def Con from 0.0464273 to 0.0464273
Heightened Def Con from 0.0464273 to 0.0464273
Heightened Def Con from 0.0464273 to 0.0464273
Heightened Def Con from 0.0464274 to 0.0464274
Heightened Def Con from 0.0464274 to 0.0464274
Heightened Def Con from 0.0464274 to 0.0464274
Heightened Def Con from 0.0464274 to 0.0464274
Heightened Def Con from 0.0464274 to 0.0464274
Heightened Def Con from 0.0464274 to 0.0464274
Heightened Def Con from 0.0464274 to 0.0464274
Heightened Def Con from 0.0464274 to 0.0464274
Heightened Def Con from 0.0464274 to 0.0464274
Heightened Def Con from 0.0464274 to 0.0464274
Heightened Def Con from 0.0464274 to 0.0464274
Heightened Def Con from 0.0464274 to 0.0464274
Heightened Def Con from 0.0464274 to 0.0464274
Heightened Def Con from 0.0464274 to 0.0464274
Heightened Def Con from 0.0464274 to 0.0464274
Heightened Def Con from 0.0464274 to 0.0464274
Heightened Def Con from 0.0464274 to 0.0464274
Heightened Def Con from 0.0464275 to 0.0464275
Heightened Def Con from 0.0464276 to 0.0464276
Heightened Def Con from 0.0464276 to 0.0464276
Heightened Def Con from 0.0464276 to 0.0464276
Heightened Def Con from 0.0464276 to 0.0464276
Heightened Def Con from 0.0464276 to 0.0464276
Heightened Def Con from 0.0464276 to 0.0464276
Heightened Def Con from 0.0464276 to 0.0464276
Heightened Def Con from 0.0464276 to 0.0464276
Heightened Def Con from 0.0464285 to 0.0464285
Heightened Def Con from 0.0464286 to 0.0464286
Heightened Def Con from 0.04643 to 0.04643
Heightened Def Con from 0.04643 to 0.04643
Heightened Def Con from 0.04643 to 0.04643
Heightened Def Con from 0.0464301 to 0.0464301
Heightened Def Con from 0.0464301 to 0.0464301
Heightened Def Con from 0.0464301 to 0.0464301
Heightened Def Con from 0.0464301 to 0.0464301
Heightened Def Con from 0.0464301 to 0.0464301
Heightened Def Con from 0.0464302 to 0.0464302
Heightened Def Con from 0.0464302 to 0.0464302
Heightened Def Con from 0.0464302 to 0.0464302
Heightened Def Con from 0.0464302 to 0.0464302
Heightened Def Con from 0.0464348 to 0.0464348
Heightened Def Con from 0.0464348 to 0.0464348
Heightened Def Con from 0.0464348 to 0.0464348
Heightened Def Con from 0.0464348 to 0.0464348
Heightened Def Con from 0.0464348 to 0.0464348
Heightened Def Con from 0.0464348 to 0.0464348
Heightened Def Con from 0.0464348 to 0.0464348
Heightened Def Con from 0.0464348 to 0.0464348
Heightened Def Con from 0.0464348 to 0.0464348
Heightened Def Con from 0.0464348 to 0.0464348
Heightened Def Con from 0.0464348 to 0.0464348
Heightened Def Con from 0.0464348 to 0.0464348
Heightened Def Con from 0.0464348 to 0.0464348
Heightened Def Con from 0.0464348 to 0.0464349
Heightened Def Con from 0.0464349 to 0.0464349
Heightened Def Con from 0.0464351 to 0.0464351
Heightened Def Con from 0.0464351 to 0.0464351
Heightened Def Con from 0.0464352 to 0.0464352
Heightened Def Con from 0.0464352 to 0.0464352
Heightened Def Con from 0.0464352 to 0.0464352
Heightened Def Con from 0.0464508 to 0.0464508
Heightened Def Con from 0.0464508 to 0.0464508
Heightened Def Con from 0.0464508 to 0.0464508
Heightened Def Con from 0.0464508 +to 0.0464508
Heightened Def Con from 0.0464508 to 0.0464508
Heightened Def Con from 0.0464508 to 0.0464508
Heightened Def Con from 0.0464509 to 0.0464509
Heightened Def Con from 0.0464509 to 0.0464509
Heightened Def Con from 0.0464509 to 0.0464509
Heightened Def Con from 0.0464517 to 0.0464517
Heightened Def Con from 0.0464517 to 0.0464517
Heightened Def Con from 0.0464517 to 0.0464517
Heightened Def Con from 0.0464517 to 0.0464517
Heightened Def Con from 0.0464517 to 0.0464517
Heightened Def Con from 0.0464517 to 0.0464517
Heightened Def Con from 0.0464517 to 0.0464517
Heightened Def Con from 0.0464517 to 0.0464517
Heightened Def Con from 0.0464517 to 0.0464517
Heightened Def Con from 0.0464517 to 0.0464517
Heightened Def Con from 0.0464517 to 0.0464517
Heightened Def Con from 0.0464517 to 0.0464517
Heightened Def Con from 0.0464517 to 0.0464517
Heightened Def Con from 0.0464517 to 0.0464517
Heightened Def Con from 0.0464517 to 0.0464517
Heightened Def Con from 0.0464518 to 0.0464518
Heightened Def Con from 0.046452 to 0.046452
Heightened Def Con from 0.046452 to 0.046452
Heightened Def Con from 0.046452 to 0.046452
Heightened Def Con from 0.046452 to 0.046452
Heightened Def Con from 0.046452 to 0.046452
Heightened Def Con from 0.046452 to 0.046452
Heightened Def Con from 0.046452 to 0.046452
Heightened Def Con from 0.046452 to 0.046452
Heightened Def Con from 0.046452 to 0.046452
Heightened Def Con from 0.046452 to 0.046452
Heightened Def Con from 0.046452 to 0.046452
Heightened Def Con from 0.046452 to 0.046452
Heightened Def Con from 0.046452 to 0.046452
Heightened Def Con from 0.046452 to 0.046452
Heightened Def Con from 0.0464521 to 0.0464521
Heightened Def Con from 0.0464521 to 0.0464521
Heightened Def Con from 0.0464521 to 0.0464521
Heightened Def Con from 0.0464521 to 0.0464521
Heightened Def Con from 0.0464521 to 0.0464521
Heightened Def Con from 0.0464521 to 0.0464521
Heightened Def Con from 0.0464521 to 0.0464521
Heightened Def Con from 0.0464521 to 0.0464521
Heightened Def Con from 0.0464521 to 0.0464521
Heightened Def Con from 0.0464521 to 0.0464521
Heightened Def Con from 0.0464521 to 0.0464521
Heightened Def Con from 0.0464521 to 0.0464521
Heightened Def Con from 0.0464521 to 0.0464521
Heightened Def Con from 0.0464521 to 0.0464521
Heightened Def Con from 0.0464521 to 0.0464521
Heightened Def Con from 0.0464521 to 0.0464521
Heightened Def Con from 0.0464521 to 0.0464521
Heightened Def Con from 0.0464521 to 0.0464521
Heightened Def Con from 0.0464521 to 0.0464521
Heightened Def Con from 0.0464521 to 0.0464521
Heightened Def Con from 0.0464521 to 0.0464521
Heightened Def Con from 0.0464521 to 0.0464521
Heightened Def Con from 0.0464521 to 0.0464521
Heightened Def Con from 0.0464521 to 0.0464521
Heightened Def Con from 0.0464522 to 0.0464522
Heightened Def Con from 0.0464522 to 0.0464522
Heightened Def Con from 0.0464522 to 0.0464522
Heightened Def Con from 0.0464522 to 0.0464522
Heightened Def Con from 0.0464522 to 0.0464522
Heightened Def Con from 0.0464522 to 0.0464522
Heightened Def Con from 0.0464522 to 0.0464522
Heightened Def Con from 0.0464522 to 0.0464522
Heightened Def Con from 0.0464522 to 0.0464522
Heightened Def Con from 0.0464522 to 0.0464522
Heightened Def Con from 0.0464522 to 0.0464522
Heightened Def Con from 0.0464522 to 0.0464522
Heightened Def Con from 0.0464522 to 0.0464522
Heightened Def Con from 0.0464522 to 0.0464522
Heightened Def Con from 0.0464522 to 0.0464522
Heightened Def Con from 0.0464522 to 0.0464522
Heightened Def Con from 0.0464522 to 0.0464523
Heightened Def Con from 0.0464523 to 0.0464523
Heightened Def Con from 0.0464523 to 0.0464523
Heightened Def Con from 0.0464523 to 0.0464523
Heightened Def Con from 0.0464523 to 0.0464523
Heightened Def Con from 0.0464523 to 0.0464523
Heightened Def Con from 0.0464523 to 0.0464523
Heightened Def Con from 0.0464523 to 0.0464523
Heightened Def Con from 0.0464523 to 0.0464523
Heightened Def Con from 0.0464523 to 0.0464523
Heightened Def Con from 0.0464523 to 0.0464523
Heightened Def Con from 0.0464523 to 0.0464523
Heightened Def Con from 0.0464523 to 0.0464523
Heightened Def Con from 0.0464523 to 0.0464523
Heightened Def Con from 0.0464523 to 0.0464523
Heightened Def Con from 0.0464523 to 0.0464523
Heightened Def Con from 0.0464523 to 0.0464523
Heightened Def Con from 0.0464523 to 0.0464523
Heightened Def Con from 0.0464523 to 0.0464523
Heightened Def Con from 0.0464523 to 0.0464523
Heightened Def Con from 0.0464524 to 0.0464524
Heightened Def Con from 0.0464524 to 0.0464524
Heightened Def Con from 0.0464524 to 0.0464524
Heightened Def Con from 0.0464524 to 0.0464524
Heightened Def Con from 0.0464524 to 0.0464524
Heightened Def Con from 0.0464524 to 0.0464524
Heightened Def Con from 0.0464524 to 0.0464524
Heightened Def Con from 0.0464524 to 0.0464524
Heightened Def Con from 0.0464524 to 0.0464524
Heightened Def Con from 0.0464524 to 0.0464524
Heightened Def Con from 0.0464524 to 0.0464524
Heightened Def Con from 0.0464524 to 0.0464524
Heightened Def Con from 0.0464524 to 0.0464524
Heightened Def Con from 0.0464524 to 0.0464524
Heightened Def Con from 0.0464524 to 0.0464524
Heightened Def Con from 0.0464524 to 0.0464524
Heightened Def Con from 0.0464524 to 0.0464524
Heightened Def Con from 0.0464524 to 0.0464524
Heightened Def Con from 0.0464524 to 0.0464524
Heightened Def Con from 0.0464524 to 0.0464524
Heightened Def Con from 0.0464524 to 0.0464524
Heightened Def Con from 0.0464524 to 0.0464524
Heightened Def Con from 0.0464524 to 0.0464524
Heightened Def Con from 0.0464524 to 0.0464524
Heightened Def Con from 0.0464524 to 0.0464524
Heightened Def Con from 0.0464524 to 0.0464524
Heightened Def Con from 0.0464524 to 0.0464524
Heightened Def Con from 0.0464524 to 0.0464524
Heightened Def Con from 0.0464524 to 0.0464524
Heightened Def Con from 0.0464524 to 0.0464524
Heightened Def Con from 0.0464524 to 0.0464524
Heightened Def Con from 0.0464524 to 0.0464524
Heightened Def Con from 0.0464524 to 0.0464524
Heightened Def Con from 0.0464524 to 0.0464524
Heightened Def Con from 0.0464524 to 0.0464524
Heightened Def Con from 0.0464524 to 0.0464524
Heightened Def Con from 0.0464524 to 0.0464524
Heightened Def Con from 0.0464524 to 0.0464524
Heightened Def Con from 0.0464524 to 0.0464524
Heightened Def Con from 0.0464524 to 0.0464524
Heightened Def Con from 0.0464524 to 0.0464524
Heightened Def Con from 0.0464524 to 0.0464525
Heightened Def Con from 0.0464525 to 0.0464525
Heightened Def Con from 0.0464525 to 0.0464525
Heightened Def Con from 0.0464525 to 0.0464525
Heightened Def Con from 0.0464525 to 0.0464525
Heightened Def Con from 0.0464525 to 0.0464525
Heightened Def Con from 0.0464525 to 0.0464525
Heightened Def Con from 0.0464525 to 0.0464525
Heightened Def Con from 0.0464525 to 0.0464525
Heightened Def Con from 0.0464525 to 0.0464525
Heightened Def Con from 0.0464525 to 0.0464525
Heightened Def Con from 0.0464525 to 0.0464525
Heightened Def Con from 0.0464525 to 0.0464525
Heightened Def Con from 0.0464525 to 0.0464525
Heightened Def Con from 0.0464525 to 0.0464525
Heightened Def Con from 0.0464525 to 0.0464525
Heightened Def Con from 0.0464525 to 0.0464525
Heightened Def Con from 0.0464525 to 0.0464525
Heightened Def Con from 0.0464525 to 0.0464525
Heightened Def Con from 0.0464525 to 0.0464525
Heightened Def Con from 0.0464525 to 0.0464525
Heightened Def Con from 0.0464525 to 0.0464525
Heightened Def Con from 0.0464525 to 0.0464525
Heightened Def Con from 0.0464525 to 0.0464525
Heightened Def Con from 0.0464525 to 0.0464525
Heightened Def Con from 0.0464525 to 0.0464525
Heightened Def Con from 0.0464526 to 0.0464526
Heightened Def Con from 0.0464526 to 0.0464526
Heightened Def Con from 0.0464526 to 0.0464526
Heightened Def Con from 0.0464526 to 0.0464526
Heightened Def Con from 0.0464526 to 0.0464526
Heightened Def Con from 0.0464526 to 0.0464526
Heightened Def Con from 0.0464526 to 0.0464526
Heightened Def Con from 0.0464526 to 0.0464526
Heightened Def Con from 0.0464526 to 0.0464526
Heightened Def Con from 0.0464526 to 0.0464526
Heightened Def Con from 0.0464526 to 0.0464526
Heightened Def Con from 0.0464526 to 0.0464526
Heightened Def Con from 0.0464526 to 0.0464526
Heightened Def Con from 0.0464526 to 0.0464526
Heightened Def Con from 0.0464526 to 0.0464526
Heightened Def Con from 0.0464526 to 0.0464526
Heightened Def Con from 0.0464526 to 0.0464526
Heightened Def Con from 0.0464526 to 0.0464526
Heightened Def Con from 0.0464526 to 0.0464526
Heightened Def Con from 0.0464526 to 0.0464526
Heightened Def Con from 0.0464526 to 0.0464526
Heightened Def Con from 0.0464526 to 0.0464526
Heightened Def Con from 0.0464526 to 0.0464526
Heightened Def Con from 0.0464526 to 0.0464527
Heightened Def Con from 0.0464549 to 0.0464549
Heightened Def Con from 0.0464549 to 0.0464549
Heightened Def Con from 0.0464549 to 0.0464549
Heightened Def Con from 0.0464549 to 0.0464549
Heightened Def Con from 0.0464549 to 0.0464549
Heightened Def Con from 0.0464549 to 0.0464549
Heightened Def Con from 0.0464549 to 0.0464549
Heightened Def Con from 0.0464549 to 0.0464549
Heightened Def Con from 0.0464549 to 0.0464549
Heightened Def Con from 0.046455 to 0.046455
Heightened Def Con from 0.046455 to 0.046455
Heightened Def Con from 0.046455 to 0.046455
Heightened Def Con from 0.046455 to 0.046455
Heightened Def Con from 0.046455 to 0.046455
Heightened Def Con from 0.046455 to 0.046455
Heightened Def Con from 0.046455 to 0.046455
Heightened Def Con from 0.046455 to 0.046455
Heightened Def Con from 0.046455 to 0.046455
Heightened Def Con from 0.046455 to 0.046455
Heightened Def Con from 0.046455 to 0.046455
Heightened Def Con from 0.046455 to 0.046455
Heightened Def Con from 0.046455 to 0.046455
Heightened Def Con from 0.046455 to 0.046455
Heightened Def Con from 0.046455 to 0.046455
Heightened Def Con from 0.046455 to 0.046455
Heightened Def Con from 0.046455 to 0.046455
Heightened Def Con from 0.046455 to 0.046455
Heightened Def Con from 0.046455 to 0.046455
Heightened Def Con from 0.046455 to 0.046455
Heightened Def Con from 0.046455 to 0.046455
Heightened Def Con from 0.0464551 to 0.0464551
Heightened Def Con from 0.0464551 to 0.0464551
Heightened Def Con from 0.0464551 to 0.0464551
Heightened Def Con from 0.0464551 to 0.0464551
Heightened Def Con from 0.0464551 to 0.0464551
Heightened Def Con from 0.0464551 to 0.0464551
Heightened Def Con from 0.0464551 to 0.0464551
Heightened Def Con from 0.0464551 to 0.0464551
Heightened Def Con from 0.0464551 to 0.0464551
Heightened Def Con from 0.0464551 to 0.0464551
Heightened Def Con from 0.0464551 to 0.0464551
Heightened Def Con from 0.0464551 to 0.0464551
Heightened Def Con from 0.0464551 to 0.0464551
Heightened Def Con from 0.0464551 to 0.0464551
Heightened Def Con from 0.0464551 to 0.0464552
Heightened Def Con from 0.0464552 to 0.0464552
Heightened Def Con from 0.0464552 to 0.0464552
Heightened Def Con from 0.0464552 to 0.0464552
Heightened Def Con from 0.0464552 to 0.0464552
Heightened Def Con from 0.0464552 to 0.0464552
Heightened Def Con from 0.0464552 to 0.0464552
Heightened Def Con from 0.0464552 to 0.0464552
Heightened Def Con from 0.0464552 to 0.0464552
Heightened Def Con from 0.0464552 to 0.0464552
Heightened Def Con from 0.0464552 to 0.0464552
Heightened Def Con from 0.0464552 to 0.0464552
Heightened Def Con from 0.0464552 to 0.0464552
Heightened Def Con from 0.0464552 to 0.0464552
Heightened Def Con from 0.0464552 to 0.0464552
Heightened Def Con from 0.0464552 to 0.0464552
Heightened Def Con from 0.0464552 to 0.0464552
Heightened Def Con from 0.0464552 to 0.0464552
Heightened Def Con from 0.0464552 to 0.0464552
Heightened Def Con from 0.0464552 to 0.0464553
Heightened Def Con from 0.0464553 to 0.0464553
Heightened Def Con from 0.0464553 to 0.0464553
Heightened Def Con from 0.0464553 to 0.0464553
Heightened Def Con from 0.0464553 to 0.0464553
Heightened Def Con from 0.0464553 to 0.0464553
Heightened Def Con from 0.0464553 to 0.0464553
Heightened Def Con from 0.0464553 to 0.0464553
Heightened Def Con from 0.0464553 to 0.0464553
Heightened Def Con from 0.0464553 to 0.0464553
Heightened Def Con from 0.0464553 to 0.0464553
Heightened Def Con from 0.0464553 to 0.0464553
Heightened Def Con from 0.0464553 to 0.0464553
Heightened Def Con from 0.0464553 to 0.0464553
Heightened Def Con from 0.0464553 to 0.0464553
Heightened Def Con from 0.0464553 to 0.0464553
Heightened Def Con from 0.0464553 to 0.0464553
Heightened Def Con from 0.0464553 to 0.0464553
Heightened Def Con from 0.0464553 to 0.0464553
Heightened Def Con from 0.0464553 to 0.0464553
Heightened Def Con from 0.0464553 to 0.0464553
Heightened Def Con from 0.046456 to 0.046456
Heightened Def Con from 0.046456 to 0.046456
Heightened Def Con from 0.046456 to 0.046456
Heightened Def Con from 0.046456 to 0.046456
Heightened Def Con from 0.046456 to 0.046456
Heightened Def Con from 0.046456 to 0.046456
Heightened Def Con from 0.046456 to 0.046456
Heightened Def Con from 0.046456 to 0.0464561
Heightened Def Con from 0.0464561 to 0.0464561
Heightened Def Con from 0.0464561 to 0.0464561
Heightened Def Con from 0.0464561 to 0.0464561
Heightened Def Con from 0.0464561 to 0.0464561
Heightened Def Con from 0.0464561 to 0.0464561
Heightened Def Con from 0.0464561 to 0.0464561
Heightened Def Con from 0.0464561 to 0.0464561
Heightened Def Con from 0.0464561 to 0.0464561
Heightened Def Con from 0.0464561 to 0.0464561
Heightened Def Con from 0.0464561 to 0.0464561
Heightened Def Con from 0.0464565 to 0.0464565
Heightened Def Con from 0.0464565 to 0.0464565
Heightened Def Con from 0.0464565 to 0.0464565
Heightened Def Con from 0.0464566 to 0.0464566
Heightened Def Con from 0.0464567 to 0.0464567
Heightened Def Con from 0.0464567 to 0.0464567
Heightened Def Con from 0.0464567 to 0.0464567
Heightened Def Con from 0.0464567 to 0.0464567
Heightened Def Con from 0.0464567 to 0.0464567
Heightened Def Con from 0.0464567 to 0.0464567
Heightened Def Con from 0.0464567 to 0.0464567
Heightened Def Con from 0.0464567 to 0.0464567
Heightened Def Con from 0.0464567 to 0.0464567
Heightened Def Con from 0.0563518 to 0.0563518
Heightened Def Con from 0.0563518 to 0.0563518
Heightened Def Con from 0.056352 to 0.056352
Heightened Def Con from 0.056352 to 0.056352
Heightened Def Con from 0.056352 to 0.056352
Heightened Def Con from 0.056352 to 0.056352
Heightened Def Con from 0.056352 to 0.056352
Heightened Def Con from 0.056352 to 0.056352
Heightened Def Con from 0.056352 to 0.056352
Heightened Def Con from 0.0563521 to 0.0563521
Heightened Def Con from 0.0563521 to 0.0563521
Heightened Def Con from 0.0563521 to 0.0563521
Heightened Def Con from 0.0563521 to 0.0563521
Heightened Def Con from 0.0563521 to 0.0563521
Heightened Def Con from 0.0563521 to 0.0563521
Heightened Def Con from 0.0563522 to 0.0563522
Heightened Def Con from 0.0563522 to 0.0563522
Heightened Def Con from 0.0563522 to 0.0563522
Heightened Def Con from 0.0563624 to 0.0563624
Heightened Def Con from 0.0563625 to 0.0563625
Heightened Def Con from 0.0564092 to 0.0564092
Heightened Def Con from 0.0564092 to 0.0564092
Heightened Def Con from 0.0564092 to 0.0564092
Heightened Def Con from 0.0564092 to 0.0564092
Heightened Def Con from 0.0564092 to 0.0564092
Heightened Def Con from 0.0564092 to 0.0564092
Heightened Def Con from 0.0564092 to 0.0564092
Heightened Def Con from 0.0564092 to 0.0564092
Heightened Def Con from 0.0564092 to 0.0564092
Heightened Def Con from 0.0564092 to 0.0564092
Heightened Def Con from 0.0564092 to 0.0564092
Heightened Def Con from 0.0564092 to 0.0564092
Heightened Def Con from 0.0564092 to 0.0564092
Heightened Def Con from 0.0564093 to 0.0564093
Heightened Def Con from 0.0564093 to 0.0564093
Heightened Def Con from 0.0564093 to 0.0564093
Heightened Def Con from 0.0564093 to 0.0564093
Heightened Def Con from 0.0564094 to 0.0564094
Heightened Def Con from 0.0564094 to 0.0564094
Heightened Def Con from 0.0564094 to 0.0564094
Heightened Def Con from 0.0564094 to 0.0564094
Heightened Def Con from 0.0564094 to 0.0564094
Heightened Def Con from 0.0564094 to 0.0564094
Heightened Def Con from 0.0564261 to 0.0564261
Heightened Def Con from 0.0564559 to 0.0564559
Heightened Def Con from 0.0564594 to 0.0564594
Heightened Def Con from 0.0564596 to 0.0564596
Heightened Def Con from 0.0564596 to 0.0564596
Heightened Def Con from 0.0564596 to 0.0564596
Heightened Def Con from 0.0564596 to 0.0564596
Heightened Def Con from 0.0564692 to 0.0564692
Heightened Def Con from 0.0663528 to 0.0663528
Heightened Def Con from 0.0663528 to 0.0663528
Heightened Def Con from 0.0663528 to 0.0663528
Heightened Def Con from 0.0663584 to 0.0663584
Heightened Def Con from 0.0663584 to 0.0663584
Heightened Def Con from 0.0663584 to 0.0663584
Heightened Def Con from 0.0663584 to 0.0663584
Heightened Def Con from 0.0663584 to 0.0663585
Heightened Def Con from 0.0663585 to 0.0663585
Heightened Def Con from 0.0663585 to 0.0663585
Heightened Def Con from 0.0663585 to 0.0663585
Heightened Def Con from 0.0663585 to 0.0663585
Heightened Def Con from 0.0663586 to 0.0663586
Heightened Def Con from 0.0663588 to 0.0663588
Heightened Def Con from 0.0663588 to 0.0663588
Heightened Def Con from 0.0663588 to 0.0663588
Heightened Def Con from 0.0663588 to 0.0663588
Heightened Def Con from 0.0663588 to 0.0663588
Heightened Def Con from 0.0663588 to 0.0663588
Heightened Def Con from 0.0663588 to 0.0663588
Heightened Def Con from 0.0663588 to 0.0663588
Heightened Def Con from 0.0663588 to 0.0663588
Heightened Def Con from 0.0663589 to 0.0663589
Heightened Def Con from 0.0663589 to 0.0663589
Heightened Def Con from 0.0663589 to 0.0663589
Heightened Def Con from 0.0663589 to 0.0663589
Heightened Def Con from 0.0663589 to 0.0663589
Heightened Def Con from 0.0663589 to 0.0663589
Heightened Def Con from 0.0663589 to 0.066359
Heightened Def Con from 0.0664358 to 0.0664358
Heightened Def Con from 0.0664485 to 0.0664485
Heightened Def Con from 0.0664489 to 0.0664489
Heightened Def Con from 0.0664489 to 0.0664489
Heightened Def Con from 0.0664489 to 0.0664489
Heightened Def Con from 0.0664489 to 0.0664489
Heightened Def Con from 0.0664489 to 0.0664489
Heightened Def Con from 0.066449 to 0.066449
Heightened Def Con from 0.066449 to 0.066449
Heightened Def Con from 0.066449 to 0.066449
Heightened Def Con from 0.066449 to 0.066449
Heightened Def Con from 0.066449 to 0.066449
Heightened Def Con from 0.066449 to 0.066449
Heightened Def Con from 0.066449 to 0.066449
Heightened Def Con from 0.066449 to 0.066449
Heightened Def Con from 0.066449 to 0.066449
Heightened Def Con from 0.066449 to 0.066449
Heightened Def Con from 0.066449 to 0.066449
Heightened Def Con from 0.066449 to 0.066449
Heightened Def Con from 0.066449 to 0.066449
Heightened Def Con from 0.066449 to 0.066449
Heightened Def Con from 0.0664491 to 0.0664491
Heightened Def Con from 0.0664491 to 0.0664491
Heightened Def Con from 0.0664501 to 0.0664501
Heightened Def Con from 0.0664501 to 0.0664501
Heightened Def Con from 0.0666118 to 0.0666118
Heightened Def Con from 0.0666118 to 0.0666118
Heightened Def Con from 0.0666118 to 0.0666118
Heightened Def Con from 0.0666118 to 0.0666118
Heightened Def Con from 0.0666119 to 0.0666119
Heightened Def Con from 0.0666119 to 0.0666119
Heightened Def Con from 0.0666119 to 0.0666119
Heightened Def Con from 0.0666119 to 0.0666119
Heightened Def Con from 0.0666119 to 0.0666119
Heightened Def Con from 0.0666119 to 0.0666119
Heightened Def Con from 0.0666119 to 0.0666119
Heightened Def Con from 0.0666119 to 0.0666119
Heightened Def Con from 0.0666121 to 0.0666121
Heightened Def Con from 0.0666121 to 0.0666121
Heightened Def Con from 0.0666121 to 0.0666121
Heightened Def Con from 0.0666121 to 0.0666121
Heightened Def Con from 0.0666121 to 0.0666121
Heightened Def Con from 0.0666121 to 0.0666122
Heightened Def Con from 0.0666122 to 0.0666122
Heightened Def Con from 0.0666122 to 0.0666122
Heightened Def Con from 0.0666123 to 0.0666123
Heightened Def Con from 0.0666123 to 0.0666123
Heightened Def Con from 0.0666123 to 0.0666123
Heightened Def Con from 0.0666123 to 0.0666123
Heightened Def Con from 0.0666126 to 0.0666126
Heightened Def Con from 0.0666126 to 0.0666126
Heightened Def Con from 0.0666126 to 0.0666126
Heightened Def Con from 0.0666313 to 0.0666313
Heightened Def Con from 0.0763433 to 0.0763433
Heightened Def Con from 0.0763433 to 0.0763433
Heightened Def Con from 0.0763433 to 0.0763433
Heightened Def Con from 0.0763433 to 0.0763433
Heightened Def Con from 0.0763433 to 0.0763433
Heightened Def Con from 0.0763434 to 0.0763434
Heightened Def Con from 0.0763434 to 0.0763434
Heightened Def Con from 0.0763434 to 0.0763434
Heightened Def Con from 0.0763434 to 0.0763434
Heightened Def Con from 0.0763434 to 0.0763434
Heightened Def Con from 0.0763434 to 0.0763434
Heightened Def Con from 0.0763551 to 0.0763551
Heightened Def Con from 0.0763551 to 0.0763551
Heightened Def Con from 0.0763551 to 0.0763551
Heightened Def Con from 0.0763552 to 0.0763552
Heightened Def Con from 0.0764332 to 0.0764332
Heightened Def Con from 0.0764343 to 0.0764343
Heightened Def Con from 0.0764344 to 0.0764344
Heightened Def Con from 0.0764344 to 0.0764344
Heightened Def Con from 0.0766089 to 0.0766089
Heightened Def Con from 0.0766089 to 0.0766089
Heightened Def Con from 0.0766089 to 0.0766089
Heightened Def Con from 0.0766089 to 0.0766089
Heightened Def Con from 0.076609 to 0.076609
Heightened Def Con from 0.0766101 to 0.0766101
Heightened Def Con from 0.0766101 to 0.0766102
Heightened Def Con from 0.0766102 to 0.0766102
Heightened Def Con from 0.0766102 to 0.0766102
Heightened Def Con from 0.0766102 to 0.0766102
Heightened Def Con from 0.0766102 to 0.0766102
Heightened Def Con from 0.0766102 to 0.0766102
Heightened Def Con from 0.0766102 to 0.0766102
Heightened Def Con from 0.0766102 to 0.0766102
Heightened Def Con from 0.0766102 to 0.0766102
Heightened Def Con from 0.0766102 to 0.0766102
Heightened Def Con from 0.0766102 to 0.0766102
Heightened Def Con from 0.0766102 to 0.0766102
Heightened Def Con from 0.0766102 to 0.0766102
Heightened Def Con from 0.0766127 to 0.0766127
Heightened Def Con from 0.0766127 to 0.0766127
Heightened Def Con from 0.0766128 to 0.0766128
Heightened Def Con from 0.0766128 to 0.0766128
Heightened Def Con from 0.0766129 to 0.0766129
Heightened Def Con from 0.0766129 to 0.0766129
Heightened Def Con from 0.0766129 to 0.0766129
Heightened Def Con from 0.076613 to 0.076613
Heightened Def Con from 0.0766143 to 0.0766143
Heightened Def Con from 0.0766143 to 0.0766143
Heightened Def Con from 0.0766143 to 0.0766143
Heightened Def Con from 0.0766143 to 0.0766143
Heightened Def Con from 0.0766143 to 0.0766143
Heightened Def Con from 0.0766143 to 0.0766143
Heightened Def Con from 0.0766143 to 0.0766143
Heightened Def Con from 0.0766145 to 0.0766145
Heightened Def Con from 0.0766147 to 0.0766147
Heightened Def Con from 0.0766147 to 0.0766147
Heightened Def Con from 0.0766147 to 0.0766147
Heightened Def Con from 0.0766168 to 0.0766168
Heightened Def Con from 0.0766181 to 0.0766181
Heightened Def Con from 0.0766181 to 0.0766181
Heightened Def Con from 0.0766181 to 0.0766181
Heightened Def Con from 0.0766181 to 0.0766181
Heightened Def Con from 0.0766181 to 0.0766181
Heightened Def Con from 0.0766181 to 0.0766181
Heightened Def Con from 0.0863521 to 0.0863521
Heightened Def Con from 0.0863521 to 0.0863521
Heightened Def Con from 0.0863521 to 0.0863521
Heightened Def Con from 0.0863521 to 0.0863521
Heightened Def Con from 0.0863521 to 0.0863521
Heightened Def Con from 0.0863522 to 0.0863522
Heightened Def Con from 0.0863523 to 0.0863523
Heightened Def Con from 0.0863523 to 0.0863523
Heightened Def Con from 0.0863523 to 0.0863523
Heightened Def Con from 0.0863523 to 0.0863523
Heightened Def Con from 0.0863523 to 0.0863523
Heightened Def Con from 0.0863523 to 0.0863523
Heightened Def Con from 0.0863523 to 0.0863523
Heightened Def Con from 0.0863523 to 0.0863523
Heightened Def Con from 0.0863523 to 0.0863523
Heightened Def Con from 0.0863526 to 0.0863526
Heightened Def Con from 0.0863526 to 0.0863526
Heightened Def Con from 0.0863526 to 0.0863526
Heightened Def Con from 0.0863762 to 0.0863762
Heightened Def Con from 0.0863762 to 0.0863762
Heightened Def Con from 0.0863762 to 0.0863762
Heightened Def Con from 0.0863762 to 0.0863762
Heightened Def Con from 0.0863762 to 0.0863762
Heightened Def Con from 0.0863762 to 0.0863762
Heightened Def Con from 0.0863762 to 0.0863762
Heightened Def Con from 0.0863762 to 0.0863762
Heightened Def Con from 0.0863762 to 0.0863762
Heightened Def Con from 0.0863762 to 0.0863762
Heightened Def Con from 0.0863762 to 0.0863762
Heightened Def Con from 0.0863762 to 0.0863762
Heightened Def Con from 0.0863762 to 0.0863762
Heightened Def Con from 0.0863763 to 0.0863763
Heightened Def Con from 0.0863763 to 0.0863763
Heightened Def Con from 0.0863763 to 0.0863763
Heightened Def Con from 0.0863763 to 0.0863763
Heightened Def Con from 0.0863763 to 0.0863763
Heightened Def Con from 0.0863763 to 0.0863763
Heightened Def Con from 0.0863763 to 0.0863763
Heightened Def Con from 0.0863763 to 0.0863763
Heightened Def Con from 0.0863764 to 0.0863764
Heightened Def Con from 0.0863764 to 0.0863764
Heightened Def Con from 0.0863764 to 0.0863764
Heightened Def Con from 0.0863764 to 0.0863764
Heightened Def Con from 0.0863764 to 0.0863764
Heightened Def Con from 0.0863764 to 0.0863764
Heightened Def Con from 0.0863764 to 0.0863764
Heightened Def Con from 0.0863764 to 0.0863764
Heightened Def Con from 0.0863764 to 0.0863764
Heightened Def Con from 0.0863764 to 0.0863764
Heightened Def Con from 0.0863764 to 0.0863764
Heightened Def Con from 0.0863787 to 0.0863787
Heightened Def Con from 0.0863788 to 0.0863788
Heightened Def Con from 0.0863788 to 0.0863788
Heightened Def Con from 0.0863788 to 0.0863788
Heightened Def Con from 0.0863788 to 0.0863788
Heightened Def Con from 0.0863788 to 0.0863788
Heightened Def Con from 0.0863788 to 0.0863788
Heightened Def Con from 0.0863788 to 0.0863788
Heightened Def Con from 0.0863788 to 0.0863788
Heightened Def Con from 0.0863789 to 0.0863789
Heightened Def Con from 0.0863789 to 0.0863789
Heightened Def Con from 0.0863789 to 0.0863789
Heightened Def Con from 0.0863789 to 0.0863789
Heightened Def Con from 0.0863789 to 0.0863789
Heightened Def Con from 0.0863789 to 0.0863789
Heightened Def Con from 0.0863789 to 0.0863789
Heightened Def Con from 0.0863789 to 0.0863789
Heightened Def Con from 0.0863789 to 0.0863789
Heightened Def Con from 0.0863789 to 0.0863789
Heightened Def Con from 0.086379 to 0.086379
Heightened Def Con from 0.086379 to 0.086379
Heightened Def Con from 0.086379 to 0.086379
Heightened Def Con from 0.086379 to 0.086379
Heightened Def Con from 0.086379 to 0.086379
Heightened Def Con from 0.086379 to 0.086379
Heightened Def Con from 0.0863791 to 0.0863791
Heightened Def Con from 0.0863791 to 0.0863791
Heightened Def Con from 0.0863792 to 0.0863792
Heightened Def Con from 0.0863792 to 0.0863792
Heightened Def Con from 0.0863792 to 0.0863792
Heightened Def Con from 0.0863794 to 0.0863794
Heightened Def Con from 0.0863795 to 0.0863795
Heightened Def Con from 0.0863795 to 0.0863795
Heightened Def Con from 0.0863795 to 0.0863795
Heightened Def Con from 0.0863795 to 0.0863795
Heightened Def Con from 0.0863795 to 0.0863795
Heightened Def Con from 0.0863805 to 0.0863805
Heightened Def Con from 0.0863805 to 0.0863805
Heightened Def Con from 0.0863924 to 0.0863924
Heightened Def Con from 0.0863929 to 0.0863929
Heightened Def Con from 0.0863929 to 0.0863929
Heightened Def Con from 0.0863929 to 0.0863929
Heightened Def Con from 0.086393 to 0.086393
Heightened Def Con from 0.0863931 to 0.0863931
Heightened Def Con from 0.0863931 to 0.0863931
Heightened Def Con from 0.0863931 to 0.0863931
Heightened Def Con from 0.0863931 to 0.0863931
Heightened Def Con from 0.0863931 to 0.0863931
Heightened Def Con from 0.0863931 to 0.0863931
Heightened Def Con from 0.0863932 to 0.0863932
Heightened Def Con from 0.0863932 to 0.0863932
Heightened Def Con from 0.0863932 +to 0.0863932
Heightened Def Con from 0.0863932 to 0.0863932
Heightened Def Con from 0.0863932 to 0.0863932
Heightened Def Con from 0.0863932 to 0.0863932
Heightened Def Con from 0.0863932 to 0.0863932
Heightened Def Con from 0.0863941 to 0.0863941
Heightened Def Con from 0.0863942 to 0.0863942
Heightened Def Con from 0.0863942 to 0.0863942
Heightened Def Con from 0.0863942 to 0.0863942
Heightened Def Con from 0.0863942 to 0.0863942
Heightened Def Con from 0.0863942 to 0.0863942
Heightened Def Con from 0.0863942 to 0.0863942
Heightened Def Con from 0.0863942 to 0.0863942
Heightened Def Con from 0.0863942 to 0.0863942
Heightened Def Con from 0.0863942 to 0.0863942
Heightened Def Con from 0.0863942 to 0.0863942
Heightened Def Con from 0.0863946 to 0.0863946
Heightened Def Con from 0.0863946 to 0.0863946
Heightened Def Con from 0.0863946 to 0.0863946
Heightened Def Con from 0.0863946 to 0.0863946
Heightened Def Con from 0.0863946 to 0.0863946
Heightened Def Con from 0.0863946 to 0.0863946
Heightened Def Con from 0.0863946 to 0.0863946
Heightened Def Con from 0.0863946 to 0.0863946
Heightened Def Con from 0.0863946 to 0.0863946
Heightened Def Con from 0.0863946 to 0.0863946
Heightened Def Con from 0.0863946 to 0.0863946
Heightened Def Con from 0.0863946 to 0.0863946
Heightened Def Con from 0.0863946 to 0.0863946
Heightened Def Con from 0.0863946 to 0.0863946
Heightened Def Con from 0.0863946 to 0.0863946
Heightened Def Con from 0.0863946 to 0.0863946
Heightened Def Con from 0.0863946 to 0.0863946
Heightened Def Con from 0.0863946 to 0.0863946
Heightened Def Con from 0.0863946 to 0.0863946
Heightened Def Con from 0.0863946 to 0.0863946
Heightened Def Con from 0.0863946 to 0.0863946
[...]
Heightened Def Con from 0.366382 to 0.366382
Heightened Def Con from 0.366382 to 0.366382
Heightened Def Con from 0.366382 to 0.366382
Heightened Def Con from 0.366382 to 0.366382
Heightened Def Con from 0.366382 to 0.366382
Heightened Def Con from 0.366382 to 0.366382
Heightened Def Con from 0.366382 to 0.366382
Heightened Def Con from 0.366382 to 0.366382
Heightened Def Con from 0.366383 to 0.366383
Heightened Def Con from 0.366383 to 0.366383
Heightened Def Con from 0.366383 to 0.366383
Heightened Def Con from 0.366383 to 0.366383
Heightened Def Con from 0.366383 to 0.366383
Heightened Def Con from 0.366383 to 0.366383
Heightened Def Con from 0.366418 to 0.366418
Heightened Def Con from 0.366418 to 0.366418
Heightened Def Con from 0.366418 to 0.366418
Heightened Def Con from 0.366418 to 0.366418
Heightened Def Con from 0.366418 to 0.366418
Heightened Def Con from 0.376454 to 0.376454
Heightened Def Con from 0.376454 to 0.376454
Heightened Def Con from 0.376454 to 0.376454
Heightened Def Con from 0.376454 to 0.376454
Heightened Def Con from 0.376454 to 0.376454
Heightened Def Con from 0.376454 to 0.376454
Heightened Def Con from 0.376454 to 0.376454
Heightened Def Con from 0.376454 to 0.376454
Heightened Def Con from 0.376454 to 0.376454
Heightened Def Con from 0.376454 to 0.376454
Heightened Def Con from 0.376454 to 0.376454
Heightened Def Con from 0.376454 to 0.376454
Heightened Def Con from 0.376454 to 0.376454
Heightened Def Con from 0.376454 to 0.376454
Heightened Def Con from 0.376454 to 0.376454
Heightened Def Con from 0.376454 to 0.376454
Heightened Def Con from 0.376454 to 0.376454
Heightened Def Con from 0.376455 to 0.376455
Heightened Def Con from 0.376455 to 0.376455
Heightened Def Con from 0.386322 to 0.386322
Heightened Def Con from 0.386322 to 0.386322
Heightened Def Con from 0.386322 to 0.386322
Heightened Def Con from 0.386322 to 0.386322
Heightened Def Con from 0.386322 to 0.386322
Heightened Def Con from 0.386322 to 0.386322
Heightened Def Con from 0.386322 to 0.386322
Heightened Def Con from 0.386322 to 0.386322
Heightened Def Con from 0.386322 to 0.386322
Heightened Def Con from 0.386322 to 0.386322
Heightened Def Con from 0.386322 to 0.386322
Heightened Def Con from 0.386322 to 0.386322
Heightened Def Con from 0.386323 to 0.386323
Heightened Def Con from 0.386323 to 0.386323
Heightened Def Con from 0.386323 to 0.386323
Heightened Def Con from 0.386323 to 0.386323
Heightened Def Con from 0.386323 to 0.386323
Heightened Def Con from 0.386323 to 0.386323
Heightened Def Con from 0.386323 to 0.386323
Heightened Def Con from 0.386323 to 0.386323
Heightened Def Con from 0.386323 to 0.386323
Heightened Def Con from 0.386323 to 0.386323
Heightened Def Con from 0.386323 to 0.386323
Heightened Def Con from 0.386323 to 0.386323
Heightened Def Con from 0.386323 to 0.386323
Heightened Def Con from 0.386323 to 0.386323
Heightened Def Con from 0.38633 to 0.38633
Heightened Def Con from 0.38633 to 0.38633
Heightened Def Con from 0.38633 to 0.38633
Heightened Def Con from 0.38633 to 0.38633
Heightened Def Con from 0.38633 to 0.38633
Heightened Def Con from 0.38633 to 0.38633
Heightened Def Con from 0.38633 to 0.38633
Heightened Def Con from 0.38633 to 0.38633
Heightened Def Con from 0.38633 to 0.38633
Heightened Def Con from 0.38633 to 0.38633
Heightened Def Con from 0.38633 to 0.38633
Heightened Def Con from 0.38633 to 0.38633
Heightened Def Con from 0.38633 to 0.38633
Heightened Def Con from 0.38633 to 0.38633
Heightened Def Con from 0.386331 to 0.386331
Heightened Def Con from 0.386331 to 0.386331
Heightened Def Con from 0.386331 to 0.386331
Heightened Def Con from 0.386331 to 0.386331
Heightened Def Con from 0.386336 to 0.386336
Heightened Def Con from 0.386336 to 0.386336
Heightened Def Con from 0.386336 to 0.386336
Heightened Def Con from 0.386336 to 0.386336
Heightened Def Con from 0.386336 to 0.386336
Heightened Def Con from 0.386336 to 0.386336
Heightened Def Con from 0.386336 to 0.386336
Heightened Def Con from 0.386336 to 0.386336
Heightened Def Con from 0.386336 to 0.386336
Heightened Def Con from 0.386336 to 0.386336
Heightened Def Con from 0.386336 to 0.386337
Heightened Def Con from 0.386337 to 0.386337
Heightened Def Con from 0.386338 to 0.386338
Heightened Def Con from 0.386338 to 0.386338
Heightened Def Con from 0.386338 to 0.386338
Heightened Def Con from 0.386338 to 0.386338
Heightened Def Con from 0.386338 to 0.386338
Heightened Def Con from 0.386338 to 0.386338
Heightened Def Con from 0.386338 to 0.386338
Heightened Def Con from 0.386338 to 0.386338
Heightened Def Con from 0.386338 to 0.386338
Heightened Def Con from 0.386338 to 0.386338
Heightened Def Con from 0.386338 to 0.386338
Heightened Def Con from 0.386338 to 0.386338
Heightened Def Con from 0.386338 to 0.386338
Heightened Def Con from 0.386338 to 0.386338
Heightened Def Con from 0.386338 to 0.386338
Heightened Def Con from 0.386338 to 0.386338
Heightened Def Con from 0.386338 to 0.386338
Heightened Def Con from 0.386338 to 0.386338
Heightened Def Con from 0.386338 to 0.386338
Heightened Def Con from 0.386338 to 0.386338
Heightened Def Con from 0.386351 to 0.386351
Heightened Def Con from 0.386351 to 0.386351
Heightened Def Con from 0.386351 to 0.386351
Heightened Def Con from 0.386351 to 0.386351
Heightened Def Con from 0.386352 to 0.386352
Heightened Def Con from 0.386352 to 0.386352
Heightened Def Con from 0.386352 to 0.386352
Heightened Def Con from 0.386352 to 0.386352
Heightened Def Con from 0.386352 to 0.386352
Heightened Def Con from 0.386353 to 0.386353
Heightened Def Con from 0.386353 to 0.386353
Heightened Def Con from 0.386353 to 0.386353
Heightened Def Con from 0.386353 to 0.386353
Heightened Def Con from 0.386353 to 0.386353
Heightened Def Con from 0.386353 to 0.386353
Heightened Def Con from 0.386354 to 0.386354
Heightened Def Con from 0.386354 to 0.386354
Heightened Def Con from 0.386354 to 0.386354
Heightened Def Con from 0.386354 to 0.386354
Heightened Def Con from 0.386354 to 0.386354
Heightened Def Con from 0.386354 to 0.386354
Heightened Def Con from 0.386354 to 0.386354
Heightened Def Con from 0.386354 to 0.386354
Heightened Def Con from 0.386354 to 0.386354
Heightened Def Con from 0.386354 to 0.386354
Heightened Def Con from 0.386354 to 0.386354
Heightened Def Con from 0.386354 to 0.386354
Heightened Def Con from 0.386354 to 0.386354
Heightened Def Con from 0.386354 to 0.386354
Heightened Def Con from 0.386354 to 0.386354
Heightened Def Con from 0.386354 to 0.386354
Heightened Def Con from 0.386354 to 0.386354
Heightened Def Con from 0.386354 to 0.386354
Heightened Def Con from 0.386354 to 0.386354
Heightened Def Con from 0.386354 to 0.386354
Heightened Def Con from 0.386354 to 0.386354
Heightened Def Con from 0.386354 to 0.386354
Heightened Def Con from 0.386354 to 0.386354
Heightened Def Con from 0.386354 to 0.386354
Heightened Def Con from 0.386354 to 0.386354
Heightened Def Con from 0.386354 to 0.386354
Heightened Def Con from 0.386354 to 0.386354
Heightened Def Con from 0.386354 to 0.386354
Heightened Def Con from 0.386354 to 0.386354
Heightened Def Con from 0.386356 to 0.386356
Heightened Def Con from 0.386356 to 0.386356
Heightened Def Con from 0.386356 to 0.386356
Heightened Def Con from 0.386356 to 0.386356
Heightened Def Con from 0.386356 to 0.386356
Heightened Def Con from 0.386356 to 0.386356
Heightened Def Con from 0.386356 to 0.386356
Heightened Def Con from 0.386356 to 0.386356
Heightened Def Con from 0.386356 to 0.386356
Heightened Def Con from 0.386356 to 0.386356
Heightened Def Con from 0.386356 to 0.386356
Heightened Def Con from 0.386356 to 0.386356
Heightened Def Con from 0.386356 to 0.386356
Heightened Def Con from 0.386356 to 0.386356
Heightened Def Con from 0.386356 to 0.386356
Heightened Def Con from 0.386356 to 0.386356
Heightened Def Con from 0.386356 to 0.386356
Heightened Def Con from 0.386356 to 0.386356
Heightened Def Con from 0.386356 to 0.386356
Heightened Def Con from 0.386356 to 0.386356
Heightened Def Con from 0.386356 to 0.386356
Heightened Def Con from 0.386357 to 0.386357
Heightened Def Con from 0.386357 to 0.386357
Heightened Def Con from 0.386358 to 0.386358
Heightened Def Con from 0.386358 to 0.386358
Heightened Def Con from 0.386359 to 0.386359
Heightened Def Con from 0.386359 to 0.386359
Heightened Def Con from 0.386359 to 0.386359
Heightened Def Con from 0.386359 to 0.386359
Heightened Def Con from 0.386359 to 0.386359
Heightened Def Con from 0.386359 to 0.386359
Heightened Def Con from 0.386359 to 0.386359
Heightened Def Con from 0.386359 to 0.386359
Heightened Def Con from 0.386359 to 0.386359
Heightened Def Con from 0.386359 to 0.386359
Heightened Def Con from 0.386359 to 0.386359
Heightened Def Con from 0.386359 to 0.386359
Heightened Def Con from 0.386359 to 0.386359
Heightened Def Con from 0.386359 to 0.386359
Heightened Def Con from 0.386359 to 0.386359
Heightened Def Con from 0.386359 to 0.386359
Heightened Def Con from 0.386359 to 0.386359
Heightened Def Con from 0.386359 to 0.386359
Heightened Def Con from 0.386359 to 0.386359
Heightened Def Con from 0.386359 to 0.386359
Heightened Def Con from 0.386359 to 0.386359
Heightened Def Con from 0.386359 to 0.386359
Heightened Def Con from 0.386359 to 0.386359
Heightened Def Con from 0.386359 to 0.386359
Heightened Def Con from 0.38636 to 0.38636
Heightened Def Con from 0.38636 to 0.38636
Heightened Def Con from 0.38636 to 0.38636
Heightened Def Con from 0.38636 to 0.38636
Heightened Def Con from 0.38636 to 0.38636
Heightened Def Con from 0.38636 to 0.38636
Heightened Def Con from 0.38636 to 0.38636
Heightened Def Con from 0.38636 to 0.38636
Heightened Def Con from 0.38636 to 0.38636
Heightened Def Con from 0.386361 to 0.386361
Heightened Def Con from 0.386361 to 0.386361
Heightened Def Con from 0.386362 to 0.386362
Heightened Def Con from 0.386362 to 0.386362
Heightened Def Con from 0.386362 to 0.386362
Heightened Def Con from 0.386362 to 0.386362
Heightened Def Con from 0.386362 to 0.386362
Heightened Def Con from 0.386362 to 0.386362
Heightened Def Con from 0.386362 to 0.386362
Heightened Def Con from 0.386362 to 0.386362
Heightened Def Con from 0.386362 to 0.386362
Heightened Def Con from 0.386362 to 0.386362
Heightened Def Con from 0.386362 to 0.386362
Heightened Def Con from 0.386362 to 0.386362
Heightened Def Con from 0.386362 to 0.386362
Heightened Def Con from 0.386362 to 0.386362
Heightened Def Con from 0.386362 to 0.386362
Heightened Def Con from 0.386362 to 0.386362
Heightened Def Con from 0.386362 to 0.386362
Heightened Def Con from 0.386362 to 0.386362
Heightened Def Con from 0.386362 to 0.386362
Heightened Def Con from 0.386362 to 0.386362
Heightened Def Con from 0.386362 to 0.386362
Heightened Def Con from 0.386362 to 0.386362
Heightened Def Con from 0.386362 to 0.386362
Heightened Def Con from 0.386362 to 0.386362
Heightened Def Con from 0.386362 to 0.386362
Heightened Def Con from 0.386362 to 0.386362
Heightened Def Con from 0.386362 to 0.386362
Heightened Def Con from 0.386362 to 0.386362
Heightened Def Con from 0.386362 to 0.386362
Heightened Def Con from 0.386362 to 0.386362
Heightened Def Con from 0.386362 to 0.386362
Heightened Def Con from 0.386362 to 0.386362
Heightened Def Con from 0.386362 to 0.386362
Heightened Def Con from 0.386362 to 0.386362
Heightened Def Con from 0.386362 to 0.386362
Heightened Def Con from 0.386362 to 0.386362
Heightened Def Con from 0.386362 to 0.386362
Heightened Def Con from 0.386362 to 0.386362
Heightened Def Con from 0.386362 to 0.386362
Heightened Def Con from 0.386362 to 0.386362
Heightened Def Con from 0.386362 to 0.386362
Heightened Def Con from 0.386362 to 0.386362
Heightened Def Con from 0.386362 to 0.386362
Heightened Def Con from 0.386362 to 0.386362
Heightened Def Con from 0.386362 to 0.386362
Heightened Def Con from 0.386362 to 0.386362
Heightened Def Con from 0.386362 to 0.386362
Heightened Def Con from 0.386362 to 0.386362
Heightened Def Con from 0.386362 to 0.386362
Heightened Def Con from 0.386362 to 0.386362
Heightened Def Con from 0.386362 to 0.386362
Heightened Def Con from 0.386362 to 0.386362
Heightened Def Con from 0.386362 to 0.386362
Heightened Def Con from 0.386362 to 0.386362
Heightened Def Con from 0.386362 to 0.386362
Heightened Def Con from 0.386362 to 0.386362
Heightened Def Con from 0.386362 to 0.386362
Heightened Def Con from 0.386362 to 0.386362
Heightened Def Con from 0.386362 to 0.386362
Heightened Def Con from 0.386362 to 0.386362
Heightened Def Con from 0.386362 to 0.386362
Heightened Def Con from 0.386362 to 0.386362
Heightened Def Con from 0.386362 to 0.386362
Heightened Def Con from 0.386362 to 0.386362
Heightened Def Con from 0.386362 to 0.386362
Heightened Def Con from 0.386362 to 0.386362
Heightened Def Con from 0.386362 to 0.386362
Heightened Def Con from 0.386362 to 0.386362
Heightened Def Con from 0.386362 to 0.386362
Heightened Def Con from 0.386362 to 0.386362
Heightened Def Con from 0.386362 to 0.386362
Heightened Def Con from 0.386362 to 0.386362
Heightened Def Con from 0.386362 to 0.386362
Heightened Def Con from 0.386362 to 0.386362
Heightened Def Con from 0.386362 to 0.386363
Heightened Def Con from 0.386363 to 0.386363
Heightened Def Con from 0.386363 to 0.386363
Heightened Def Con from 0.386363 to 0.386363
Heightened Def Con from 0.386363 to 0.386363
Heightened Def Con from 0.386363 to 0.386363
Heightened Def Con from 0.386363 to 0.386363
Heightened Def Con from 0.386363 to 0.386363
Heightened Def Con from 0.386363 to 0.386363
Heightened Def Con from 0.386363 to 0.386363
Heightened Def Con from 0.386363 to 0.386363
Heightened Def Con from 0.386363 to 0.386363
Heightened Def Con from 0.386363 to 0.386363
Heightened Def Con from 0.386363 to 0.386363
Heightened Def Con from 0.386363 to 0.386363
Heightened Def Con from 0.386363 to 0.386363
Heightened Def Con from 0.386363 to 0.386363
Heightened Def Con from 0.386363 to 0.386363
Heightened Def Con from 0.386363 to 0.386363
Heightened Def Con from 0.386363 to 0.386363
Heightened Def Con from 0.386363 to 0.386363
Heightened Def Con from 0.386363 to 0.386363
Heightened Def Con from 0.386363 to 0.386363
Heightened Def Con from 0.386363 to 0.386363
Heightened Def Con from 0.386363 to 0.386363
Heightened Def Con from 0.386365 to 0.386365
Heightened Def Con from 0.386365 to 0.386365
Heightened Def Con from 0.386365 to 0.386365
Heightened Def Con from 0.386365 to 0.386365
Heightened Def Con from 0.386365 to 0.386365
Heightened Def Con from 0.386365 to 0.386366
Heightened Def Con from 0.386366 to 0.386366
Heightened Def Con from 0.386366 to 0.386366
Heightened Def Con from 0.386366 to 0.386366
Heightened Def Con from 0.386366 to 0.386366
Heightened Def Con from 0.386366 to 0.386366
Heightened Def Con from 0.386366 to 0.386366
Heightened Def Con from 0.386366 to 0.386366
Heightened Def Con from 0.386366 to 0.386366
Heightened Def Con from 0.386368 to 0.386368
Heightened Def Con from 0.386368 to 0.386368
Heightened Def Con from 0.386368 to 0.386368
Heightened Def Con from 0.386368 to 0.386368
Heightened Def Con from 0.386368 to 0.386368
Heightened Def Con from 0.386368 to 0.386368
Heightened Def Con from 0.386368 to 0.386368
Heightened Def Con from 0.386368 to 0.386368
Heightened Def Con from 0.386368 to 0.386368
Heightened Def Con from 0.386368 to 0.386368
Heightened Def Con from 0.386368 to 0.386368
Heightened Def Con from 0.386368 to 0.386368
Heightened Def Con from 0.386368 to 0.386368
Heightened Def Con from 0.386368 to 0.386368
Heightened Def Con from 0.386368 to 0.386368
Heightened Def Con from 0.386368 to 0.386368
Heightened Def Con from 0.386368 to 0.386368
Heightened Def Con from 0.386368 to 0.386368
Heightened Def Con from 0.386368 to 0.386368
Heightened Def Con from 0.386368 to 0.386368
Heightened Def Con from 0.386368 to 0.386368
Heightened Def Con from 0.386368 to 0.386368
Heightened Def Con from 0.386368 to 0.386368
Heightened Def Con from 0.386368 to 0.386368
Heightened Def Con from 0.386368 to 0.386368
Heightened Def Con from 0.386368 to 0.386368
Heightened Def Con from 0.386368 to 0.386368
Heightened Def Con from 0.386368 to 0.386368
Heightened Def Con from 0.386368 to 0.386368
Heightened Def Con from 0.386368 to 0.386368
Heightened Def Con from 0.386368 to 0.386368
Heightened Def Con from 0.386368 to 0.386368
Heightened Def Con from 0.386368 to 0.386368
Heightened Def Con from 0.386368 to 0.386368
Heightened Def Con from 0.386368 to 0.386368
Heightened Def Con from 0.386368 to 0.386368
Heightened Def Con from 0.386368 to 0.386368
Heightened Def Con from 0.386368 to 0.386368
Heightened Def Con from 0.386368 to 0.386368
Heightened Def Con from 0.386368 to 0.386368
Heightened Def Con from 0.386368 to 0.386368
Heightened Def Con from 0.386368 to 0.386368
Heightened Def Con from 0.386368 to 0.386368
Heightened Def Con from 0.386368 to 0.386368
Heightened Def Con from 0.386368 to 0.386368
Heightened Def Con from 0.386368 to 0.386368
Heightened Def Con from 0.386368 to 0.386368
Heightened Def Con from 0.386368 to 0.386368
Heightened Def Con from 0.386368 to 0.386368
Heightened Def Con from 0.386368 to 0.386368
Heightened Def Con from 0.386368 to 0.386368
Heightened Def Con from 0.386368 to 0.386368
Heightened Def Con from 0.386368 to 0.386368
Heightened Def Con from 0.386368 to 0.386368
Heightened Def Con from 0.386368 to 0.386368
Heightened Def Con from 0.386368 to 0.386368
Heightened Def Con from 0.386368 to 0.386368
Heightened Def Con from 0.386368 to 0.386368
Heightened Def Con from 0.386368 to 0.386368
Heightened Def Con from 0.386368 +to 0.386368
Heightened Def Con from 0.386368 to 0.386368
Heightened Def Con from 0.386368 to 0.386368
Heightened Def Con from 0.386368 to 0.386368
Heightened Def Con from 0.386368 to 0.386368
Heightened Def Con from 0.386368 to 0.386368
Heightened Def Con from 0.386368 to 0.386368
Heightened Def Con from 0.386368 to 0.386368
Heightened Def Con from 0.386368 to 0.386368
Heightened Def Con from 0.386368 to 0.386368
Heightened Def Con from 0.386368 to 0.386368
Heightened Def Con from 0.386368 to 0.386368
Heightened Def Con from 0.386369 to 0.386369
Heightened Def Con from 0.386369 to 0.386369
Heightened Def Con from 0.386369 to 0.386369
Heightened Def Con from 0.386369 to 0.386369
Heightened Def Con from 0.386432 to 0.386432
Heightened Def Con from 0.386432 to 0.386432
Heightened Def Con from 0.386432 to 0.386432
Heightened Def Con from 0.386432 to 0.386432
Heightened Def Con from 0.386432 to 0.386432
Heightened Def Con from 0.386456 to 0.386456
Heightened Def Con from 0.386456 to 0.386456
Heightened Def Con from 0.386457 to 0.386457
Heightened Def Con from 0.386457 to 0.386457
Heightened Def Con from 0.386457 to 0.386457
Heightened Def Con from 0.386657 to 0.386657
Heightened Def Con from 0.386657 to 0.386657
Heightened Def Con from 0.386658 to 0.386658
Heightened Def Con from 0.386658 to 0.386658
Heightened Def Con from 0.386658 to 0.386658
Heightened Def Con from 0.386658 to 0.386658
Heightened Def Con from 0.386658 to 0.386658
Heightened Def Con from 0.386658 to 0.386658
Heightened Def Con from 0.396425 to 0.396425
Heightened Def Con from 0.396425 to 0.396425
Heightened Def Con from 0.396425 to 0.396425
Heightened Def Con from 0.396425 to 0.396425
Heightened Def Con from 0.396425 to 0.396425
Heightened Def Con from 0.396425 to 0.396425
Heightened Def Con from 0.396425 to 0.396425
Heightened Def Con from 0.396425 to 0.396425
Heightened Def Con from 0.396425 to 0.396425
Heightened Def Con from 0.396548 to 0.396548
Heightened Def Con from 0.396548 to 0.396548
Heightened Def Con from 0.396548 to 0.396548
Heightened Def Con from 0.396548 to 0.396548

Date: Tue Nov 26 15:28:39 2019
Total elapsed time: 6.951 seconds.

tnom = 27
temp = 27
method = modified trap
totiter = 2096582
traniter = 2096582
tranpoints = 346046
accept = 221737
rejected = 131069
matrix size = 20
fillins = 16
solver = Normal
Matrix Compiler1: 1.66 KB object code size  0.3/0.2/[0.2]
Matrix Compiler2: 1.72 KB object code size  0.2/0.2/[0.2]

