Circuit: * C:\Users\Burak\Desktop\EE463\EE463_HardwareProject-M.P.W.U-electronics-\Simulation Drafts\First Draft-Three Phase and Buck converter\First assumption.asc

WARNING: Node NC_02 is floating.
WARNING: Node NC_04 is floating.
WARNING: Node NC_06 is floating.

WARNING: Less than two connections to node NC_01.  This node is used by V7.
WARNING: Less than two connections to node NC_02.  This node is used by V7.
WARNING: Less than two connections to node N011.  This node is used by M6.
WARNING: Less than two connections to node NC_03.  This node is used by V5.
WARNING: Less than two connections to node NC_04.  This node is used by V5.
WARNING: Less than two connections to node NC_05.  This node is used by V11.
WARNING: Less than two connections to node NC_06.  This node is used by V11.
Per .tran options, skipping operating point for transient analysis.
Heightened Def Con from 0.00578953 to 0.00578953
Heightened Def Con from 0.00578953 to 0.00578954
Heightened Def Con from 0.00578954 to 0.00578954
Heightened Def Con from 0.00578954 to 0.00578954
Heightened Def Con from 0.00578954 to 0.00578954
Heightened Def Con from 0.00578955 to 0.00578955
Heightened Def Con from 0.00578955 to 0.00578955
Heightened Def Con from 0.00578955 to 0.00578955
Heightened Def Con from 0.00578955 to 0.00578955
Heightened Def Con from 0.00578955 to 0.00578955
Heightened Def Con from 0.00578955 to 0.00578955
Heightened Def Con from 0.00578955 +to 0.00578955
Heightened Def Con from 0.00578955 to 0.00578955
Heightened Def Con from 0.00578955 to 0.00578955
Heightened Def Con from 0.00578955 to 0.00578955
Heightened Def Con from 0.00578955 to 0.00578955
Heightened Def Con from 0.00578959 to 0.00578959
Heightened Def Con from 0.00578959 to 0.00578959
Heightened Def Con from 0.00578959 to 0.00578959
Heightened Def Con from 0.00578959 to 0.00578959
Heightened Def Con from 0.00578959 +to 0.00578959
Heightened Def Con from 0.00578959 to 0.00578959
Heightened Def Con from 0.0057896 to 0.0057896
Heightened Def Con from 0.0057896 to 0.0057896
Heightened Def Con from 0.0057896 to 0.0057896
Heightened Def Con from 0.00578965 to 0.00578965
Heightened Def Con from 0.00578965 to 0.00578965
Heightened Def Con from 0.00578966 to 0.00578966
Heightened Def Con from 0.00578966 to 0.00578966
Heightened Def Con from 0.00579012 to 0.00579012
Heightened Def Con from 0.00579013 to 0.00579013
Heightened Def Con from 0.00579017 to 0.00579017
Heightened Def Con from 0.00579019 to 0.00579019
Heightened Def Con from 0.00579021 to 0.00579021
Heightened Def Con from 0.00579021 to 0.00579022
Heightened Def Con from 0.00579022 +to 0.00579022
Heightened Def Con from 0.00579023 to 0.00579023
Heightened Def Con from 0.00579036 to 0.00579036
Heightened Def Con from 0.00579036 to 0.00579036
Heightened Def Con from 0.00579036 to 0.00579036
Heightened Def Con from 0.00579036 to 0.00579036
Heightened Def Con from 0.00579036 to 0.00579036
Heightened Def Con from 0.00579036 to 0.00579037
Heightened Def Con from 0.00579037 to 0.00579037
Heightened Def Con from 0.00579061 to 0.00579061
Heightened Def Con from 0.00579061 to 0.00579061
Heightened Def Con from 0.00579061 to 0.00579061
Heightened Def Con from 0.00579061 to 0.00579061
Heightened Def Con from 0.00579061 to 0.00579061
Heightened Def Con from 0.00579061 to 0.00579061
Heightened Def Con from 0.00579062 to 0.00579062
Heightened Def Con from 0.00579062 +to 0.00579062
Heightened Def Con from 0.00579062 to 0.00579062
Heightened Def Con from 0.00579062 to 0.00579062
Heightened Def Con from 0.00579063 to 0.00579063
Heightened Def Con from 0.00579063 to 0.00579063
Heightened Def Con from 0.00579063 to 0.00579063
Heightened Def Con from 0.00579063 to 0.00579063
Heightened Def Con from 0.00579063 to 0.00579063
Heightened Def Con from 0.00579063 to 0.00579063
Heightened Def Con from 0.00579063 to 0.00579063
Heightened Def Con from 0.00579063 to 0.00579063
Heightened Def Con from 0.00579063 to 0.00579064
Heightened Def Con from 0.00579064 to 0.00579064
Heightened Def Con from 0.00579065 to 0.00579065
Heightened Def Con from 0.00579065 to 0.00579065
Heightened Def Con from 0.00579065 to 0.00579065
Heightened Def Con from 0.00579065 to 0.00579065
Heightened Def Con from 0.00579065 to 0.00579065
Heightened Def Con from 0.00579065 to 0.00579065
Heightened Def Con from 0.00579065 to 0.00579065
Heightened Def Con from 0.00579065 to 0.00579065
Heightened Def Con from 0.00579065 to 0.00579066
Heightened Def Con from 0.00579066 to 0.00579066
Heightened Def Con from 0.00579066 to 0.00579066
Heightened Def Con from 0.00579066 to 0.00579066
Heightened Def Con from 0.00579066 to 0.00579066
Heightened Def Con from 0.00579066 to 0.00579066
Heightened Def Con from 0.00579066 to 0.00579066
Heightened Def Con from 0.00579066 to 0.00579066
Heightened Def Con from 0.00579069 to 0.00579069
Heightened Def Con from 0.00579069 to 0.0057907
Heightened Def Con from 0.00579074 to 0.00579074
Heightened Def Con from 0.00579074 to 0.00579074
Heightened Def Con from 0.00579074 to 0.00579074
Heightened Def Con from 0.00579075 to 0.00579075
Heightened Def Con from 0.00579265 to 0.00579265
Heightened Def Con from 0.00579265 to 0.00579265
Heightened Def Con from 0.00579265 to 0.00579265
Heightened Def Con from 0.00579265 to 0.00579265
Heightened Def Con from 0.00579265 to 0.00579266
Heightened Def Con from 0.00579319 to 0.00579319
Heightened Def Con from 0.00579319 to 0.00579319
Heightened Def Con from 0.00579319 to 0.0057932
Heightened Def Con from 0.0057932 to 0.0057932
Heightened Def Con from 0.0057932 to 0.0057932
Heightened Def Con from 0.0057932 to 0.0057932
Heightened Def Con from 0.0057932 to 0.0057932
Heightened Def Con from 0.0057932 +to 0.0057932
Heightened Def Con from 0.0057932 to 0.0057932
Heightened Def Con from 0.0057932 to 0.0057932
Heightened Def Con from 0.0057932 to 0.0057932
Heightened Def Con from 0.0057932 to 0.0057932
Heightened Def Con from 0.0057932 to 0.0057932
Heightened Def Con from 0.0057932 to 0.00579321
Heightened Def Con from 0.00579321 to 0.00579321
Heightened Def Con from 0.00579322 to 0.00579322
Heightened Def Con from 0.00579322 to 0.00579322
Heightened Def Con from 0.00579322 to 0.00579323
Heightened Def Con from 0.00579323 +to 0.00579323
Heightened Def Con from 0.00579323 to 0.00579323
Heightened Def Con from 0.00579323 to 0.00579323
Heightened Def Con from 0.00579323 to 0.00579323
Heightened Def Con from 0.00579323 to 0.00579323
Heightened Def Con from 0.00579323 to 0.00579323
Heightened Def Con from 0.00579323 to 0.00579323
Heightened Def Con from 0.00579323 ++to 0.00579323
Heightened Def Con from 0.00579324 to 0.00579324
Heightened Def Con from 0.00579324 to 0.00579324
Heightened Def Con from 0.00579324 to 0.00579324
Heightened Def Con from 0.00579324 to 0.00579325
Heightened Def Con from 0.00579338 to 0.00579338
Heightened Def Con from 0.00579338 to 0.00579339
Heightened Def Con from 0.00579339 to 0.00579339
Heightened Def Con from 0.00579339 to 0.00579339
Heightened Def Con from 0.00579339 to 0.00579339
Heightened Def Con from 0.00579339 to 0.00579339
Heightened Def Con from 0.00579339 to 0.00579339
Heightened Def Con from 0.0057934 to 0.0057934
Heightened Def Con from 0.0057934 to 0.00579341
Heightened Def Con from 0.00579347 to 0.00579347
Heightened Def Con from 0.00579347 to 0.00579347
Heightened Def Con from 0.00579347 to 0.00579347
Heightened Def Con from 0.00579347 to 0.00579347
Heightened Def Con from 0.00579347 to 0.00579347
Heightened Def Con from 0.00579347 +to 0.00579348
Heightened Def Con from 0.00579348 to 0.00579348
Heightened Def Con from 0.00579348 to 0.00579348
Heightened Def Con from 0.00579353 to 0.00579353
Heightened Def Con from 0.00579353 to 0.00579353
Heightened Def Con from 0.00579353 to 0.00579353
Heightened Def Con from 0.00579353 to 0.00579353
Heightened Def Con from 0.00579353 to 0.00579353
Heightened Def Con from 0.00579353 to 0.00579353
Heightened Def Con from 0.00579354 to 0.00579354
Heightened Def Con from 0.00579354 to 0.00579354
Heightened Def Con from 0.00579355 to 0.00579355
Heightened Def Con from 0.00579355 to 0.00579355
Heightened Def Con from 0.00579355 to 0.00579355
Heightened Def Con from 0.00579355 to 0.00579355
Heightened Def Con from 0.00579355 to 0.00579355
Heightened Def Con from 0.00579355 to 0.00579355
Heightened Def Con from 0.00579355 to 0.00579355
Heightened Def Con from 0.00579355 to 0.00579356
Heightened Def Con from 0.00579356 to 0.00579356
Heightened Def Con from 0.00579357 to 0.00579357
Heightened Def Con from 0.00579358 to 0.00579358
Heightened Def Con from 0.00579358 to 0.00579358
Heightened Def Con from 0.00579358 to 0.00579358
Heightened Def Con from 0.00580189 to 0.00580189
Heightened Def Con from 0.00580189 to 0.0058019
Heightened Def Con from 0.0058019 to 0.0058019
Heightened Def Con from 0.0058019 to 0.0058019
Heightened Def Con from 0.0058019 to 0.0058019
Heightened Def Con from 0.0058019 to 0.0058019
Heightened Def Con from 0.0058019 to 0.0058019
Heightened Def Con from 0.0058019 to 0.0058019
Heightened Def Con from 0.00580191 to 0.00580191
Heightened Def Con from 0.00580193 to 0.00580193
Heightened Def Con from 0.00580193 to 0.00580193
Heightened Def Con from 0.00580193 to 0.00580193
Heightened Def Con from 0.00580193 to 0.00580193
Heightened Def Con from 0.00580194 to 0.00580194
Heightened Def Con from 0.00580194 to 0.00580194
Heightened Def Con from 0.00580194 to 0.00580194
Heightened Def Con from 0.00580194 to 0.00580194
Heightened Def Con from 0.00580194 to 0.00580194
Heightened Def Con from 0.00580194 to 0.00580194
Heightened Def Con from 0.00580194 to 0.00580195
Heightened Def Con from 0.00580195 to 0.00580195
Heightened Def Con from 0.00580195 to 0.00580195
Heightened Def Con from 0.00580195 to 0.00580195
Heightened Def Con from 0.00580195 to 0.00580195
Heightened Def Con from 0.00580195 to 0.00580195
Heightened Def Con from 0.00580196 to 0.00580196
Heightened Def Con from 0.00580197 to 0.00580197
Heightened Def Con from 0.00580197 to 0.00580197
Heightened Def Con from 0.00580197 to 0.00580198
Heightened Def Con from 0.00580198 to 0.00580198
Heightened Def Con from 0.00580198 to 0.00580198
Heightened Def Con from 0.00580198 to 0.00580198
Heightened Def Con from 0.00580198 to 0.00580198
Heightened Def Con from 0.00580198 to 0.00580198
Heightened Def Con from 0.00580198 to 0.00580198
Heightened Def Con from 0.00580198 to 0.00580198
Heightened Def Con from 0.00580198 to 0.00580198
Heightened Def Con from 0.00580199 to 0.00580199
Heightened Def Con from 0.00580199 to 0.00580199
Heightened Def Con from 0.00580199 to 0.00580199
Heightened Def Con from 0.00580199 to 0.00580199
Heightened Def Con from 0.00580199 to 0.005802
Heightened Def Con from 0.005802 to 0.005802
Heightened Def Con from 0.005802 to 0.005802
Heightened Def Con from 0.005802 to 0.005802
Heightened Def Con from 0.005802 to 0.005802
Heightened Def Con from 0.005802 to 0.00580201
Heightened Def Con from 0.00580201 to 0.00580201
Heightened Def Con from 0.00580201 to 0.00580201
Heightened Def Con from 0.00580212 to 0.00580212
Heightened Def Con from 0.00580212 to 0.00580212
Heightened Def Con from 0.00580212 to 0.00580212
Heightened Def Con from 0.00580212 to 0.00580213
Heightened Def Con from 0.00580213 to 0.00580213
Heightened Def Con from 0.00580213 to 0.00580213
Heightened Def Con from 0.00580221 to 0.00580221
Heightened Def Con from 0.00580223 to 0.00580223
Heightened Def Con from 0.00580224 to 0.00580224
Heightened Def Con from 0.00580224 to 0.00580224
Heightened Def Con from 0.00580224 to 0.00580224
Heightened Def Con from 0.00580226 to 0.00580226
Heightened Def Con from 0.0058023 to 0.0058023
Heightened Def Con from 0.0058023 to 0.0058023
Heightened Def Con from 0.00580233 to 0.00580234
Heightened Def Con from 0.00580234 to 0.00580234
Heightened Def Con from 0.00580235 to 0.00580235
Heightened Def Con from 0.00580235 to 0.00580235
Heightened Def Con from 0.00580236 to 0.00580236
Heightened Def Con from 0.00580236 to 0.00580236
Heightened Def Con from 0.00580236 to 0.00580237
Heightened Def Con from 0.00580237 to 0.00580237
Heightened Def Con from 0.00580237 to 0.00580237
Heightened Def Con from 0.00580237 to 0.00580237
Heightened Def Con from 0.00580237 to 0.00580237
Heightened Def Con from 0.00580237 to 0.00580237
Heightened Def Con from 0.00580237 to 0.00580238
Heightened Def Con from 0.00580238 to 0.00580238
Heightened Def Con from 0.00580238 to 0.00580238
Heightened Def Con from 0.00580238 to 0.00580238
Heightened Def Con from 0.00580238 to 0.00580238
Heightened Def Con from 0.00580238 +to 0.00580238
Heightened Def Con from 0.00580238 to 0.00580238
Heightened Def Con from 0.00580238 to 0.00580239
Heightened Def Con from 0.00580239 to 0.00580239
Heightened Def Con from 0.00580239 to 0.00580239
Heightened Def Con from 0.00580239 to 0.00580239
Heightened Def Con from 0.00580239 to 0.0058024
Heightened Def Con from 0.0058024 to 0.0058024
Heightened Def Con from 0.0058024 to 0.0058024
Heightened Def Con from 0.0058024 to 0.00580241
Heightened Def Con from 0.00580241 to 0.00580241
Heightened Def Con from 0.00580241 to 0.00580241
Heightened Def Con from 0.00580241 to 0.00580241
Heightened Def Con from 0.00580241 to 0.00580241
Heightened Def Con from 0.00580241 to 0.00580241
Heightened Def Con from 0.00580241 to 0.00580242
Heightened Def Con from 0.00580245 to 0.00580245
Heightened Def Con from 0.00580245 to 0.00580246
Heightened Def Con from 0.00580246 to 0.00580246
Heightened Def Con from 0.00580247 to 0.00580247
Heightened Def Con from 0.00580247 to 0.00580247
Heightened Def Con from 0.00580249 to 0.00580249
Heightened Def Con from 0.00580249 to 0.0058025
Heightened Def Con from 0.0058025 to 0.0058025
Heightened Def Con from 0.0058025 to 0.0058025
Heightened Def Con from 0.00580253 to 0.00580254
Heightened Def Con from 0.00580254 to 0.00580254
Heightened Def Con from 0.00580254 to 0.00580254
Heightened Def Con from 0.00580254 to 0.00580254
Heightened Def Con from 0.00580254 to 0.00580254
Heightened Def Con from 0.00580254 to 0.00580254
Heightened Def Con from 0.00580254 to 0.00580254
Heightened Def Con from 0.00580254 to 0.00580255
Heightened Def Con from 0.00580261 to 0.00580261
Heightened Def Con from 0.00580262 to 0.00580262
Heightened Def Con from 0.00580262 to 0.00580262
Heightened Def Con from 0.00580262 to 0.00580262
Heightened Def Con from 0.00580262 to 0.00580262
Heightened Def Con from 0.00580262 to 0.00580262
Heightened Def Con from 0.00580262 +to 0.00580262
Heightened Def Con from 0.00580264 to 0.00580264
Heightened Def Con from 0.00580264 to 0.00580264
Heightened Def Con from 0.00580264 to 0.00580264
Heightened Def Con from 0.00580264 to 0.00580264
Heightened Def Con from 0.00580264 to 0.00580264
Heightened Def Con from 0.00580264 to 0.00580264
Heightened Def Con from 0.00580264 to 0.00580264
Heightened Def Con from 0.00580264 to 0.00580264
Heightened Def Con from 0.00580264 to 0.00580264
Heightened Def Con from 0.00580265 to 0.00580266
Heightened Def Con from 0.00580266 to 0.00580266
Heightened Def Con from 0.00580266 to 0.00580267
Heightened Def Con from 0.00580267 to 0.00580267
Heightened Def Con from 0.00580268 to 0.00580268
Heightened Def Con from 0.00580268 to 0.00580268
Heightened Def Con from 0.00580268 to 0.00580269
Heightened Def Con from 0.00580269 to 0.00580269
Heightened Def Con from 0.00580269 to 0.00580269
Heightened Def Con from 0.00580269 to 0.00580269
Heightened Def Con from 0.00580746 to 0.00580746
Heightened Def Con from 0.00580746 to 0.00580746
Heightened Def Con from 0.00580746 to 0.00580746
Heightened Def Con from 0.00580746 to 0.00580747
Heightened Def Con from 0.00580751 to 0.00580751
Heightened Def Con from 0.00580751 to 0.00580751
Heightened Def Con from 0.00580751 to 0.00580751
Heightened Def Con from 0.00580751 to 0.00580751
Heightened Def Con from 0.00580751 to 0.00580751
Heightened Def Con from 0.00580751 to 0.00580752
Heightened Def Con from 0.00580756 to 0.00580756
Heightened Def Con from 0.00580757 to 0.00580757
Heightened Def Con from 0.00580757 to 0.00580757
Heightened Def Con from 0.00580757 to 0.00580757
Heightened Def Con from 0.00580758 to 0.00580758
Heightened Def Con from 0.00580758 to 0.00580758
Heightened Def Con from 0.00580758 to 0.00580758
Heightened Def Con from 0.00580758 to 0.00580758
Heightened Def Con from 0.00580759 to 0.00580759
Heightened Def Con from 0.00580759 to 0.00580759
Heightened Def Con from 0.00580759 to 0.00580759
Heightened Def Con from 0.0058076 to 0.0058076
Heightened Def Con from 0.00580761 to 0.00580761
Heightened Def Con from 0.00580761 to 0.00580761
Heightened Def Con from 0.00580761 to 0.00580761
Heightened Def Con from 0.00580763 to 0.00580763
Heightened Def Con from 0.00580763 to 0.00580763
Heightened Def Con from 0.00580763 to 0.00580763
Heightened Def Con from 0.00580765 to 0.00580765
Heightened Def Con from 0.00580765 to 0.00580765
Heightened Def Con from 0.00580765 to 0.00580765
Heightened Def Con from 0.00580765 to 0.00580766
Heightened Def Con from 0.00580766 to 0.00580766
Heightened Def Con from 0.00580767 to 0.00580768
Heightened Def Con from 0.00580775 to 0.00580775
Heightened Def Con from 0.00580776 +to 0.00580776
Heightened Def Con from 0.00580776 to 0.00580776
Heightened Def Con from 0.00580781 to 0.00580781
Heightened Def Con from 0.00580781 to 0.00580781
Heightened Def Con from 0.00580781 to 0.00580782
Heightened Def Con from 0.00580785 to 0.00580785
Heightened Def Con from 0.00580786 +to 0.00580786
Heightened Def Con from 0.00580786 to 0.00580786
Heightened Def Con from 0.00580786 to 0.00580786
Heightened Def Con from 0.00580786 to 0.00580786
Heightened Def Con from 0.00580787 to 0.00580787
Heightened Def Con from 0.00580817 to 0.00580817
Heightened Def Con from 0.00580817 to 0.00580817
Heightened Def Con from 0.00580817 to 0.00580817
Heightened Def Con from 0.00584462 to 0.00584462
Heightened Def Con from 0.00584462 to 0.00584463
Heightened Def Con from 0.00584463 to 0.00584463
Heightened Def Con from 0.00584463 to 0.00584463
Heightened Def Con from 0.00584463 to 0.00584464
Heightened Def Con from 0.00584464 to 0.00584464
Heightened Def Con from 0.00584464 to 0.00584464
Heightened Def Con from 0.00584464 to 0.00584464
Heightened Def Con from 0.00584465 to 0.00584465
Heightened Def Con from 0.00584465 to 0.00584465
Heightened Def Con from 0.00584465 to 0.00584465
Heightened Def Con from 0.00584465 to 0.00584465
Heightened Def Con from 0.00584465 to 0.00584465
Heightened Def Con from 0.00584465 to 0.00584465
Heightened Def Con from 0.00584465 to 0.00584465
Heightened Def Con from 0.00584466 to 0.00584466
Heightened Def Con from 0.00584468 to 0.00584468
Heightened Def Con from 0.00584468 to 0.00584468
Heightened Def Con from 0.00584472 to 0.00584472
Heightened Def Con from 0.00584473 to 0.00584473
Heightened Def Con from 0.00584473 to 0.00584473
Heightened Def Con from 0.00584473 to 0.00584473
Heightened Def Con from 0.00584476 to 0.00584477
Heightened Def Con from 0.00584477 to 0.00584477
Heightened Def Con from 0.00584477 to 0.00584477
Heightened Def Con from 0.00584477 to 0.00584477
Heightened Def Con from 0.00584477 to 0.00584477
Heightened Def Con from 0.00584477 to 0.00584477
Heightened Def Con from 0.00584477 to 0.00584477
Heightened Def Con from 0.00584477 to 0.00584477
Heightened Def Con from 0.00584477 to 0.00584477
Heightened Def Con from 0.00584478 +to 0.00584478
Heightened Def Con from 0.00584478 to 0.00584478
Heightened Def Con from 0.00584478 to 0.00584478
Heightened Def Con from 0.00584478 to 0.00584478
Heightened Def Con from 0.00584478 to 0.00584478
Heightened Def Con from 0.00584478 to 0.00584478
Heightened Def Con from 0.00584478 to 0.00584478
Heightened Def Con from 0.00584478 to 0.00584478
Heightened Def Con from 0.00584478 to 0.00584478
Heightened Def Con from 0.0058448 +to 0.0058448
Heightened Def Con from 0.0058448 to 0.0058448
Heightened Def Con from 0.00584481 +to 0.00584481
Heightened Def Con from 0.00584481 to 0.00584482
Heightened Def Con from 0.00584482 to 0.00584482
Heightened Def Con from 0.00584482 to 0.00584482
Heightened Def Con from 0.00584482 to 0.00584483
Heightened Def Con from 0.00584483 to 0.00584483
Heightened Def Con from 0.00584483 to 0.00584483
Heightened Def Con from 0.00584483 to 0.00584483
Heightened Def Con from 0.00584483 to 0.00584483
Heightened Def Con from 0.00584483 to 0.00584483
Heightened Def Con from 0.00584483 to 0.00584483
Heightened Def Con from 0.00584483 to 0.00584483
Heightened Def Con from 0.00584483 to 0.00584483
Heightened Def Con from 0.00584483 to 0.00584483
Heightened Def Con from 0.00584483 to 0.00584484
Heightened Def Con from 0.00584581 to 0.00584581
Heightened Def Con from 0.00584581 to 0.00584582
Heightened Def Con from 0.00584582 to 0.00584582
Heightened Def Con from 0.00584582 to 0.00584583
Heightened Def Con from 0.00584583 to 0.00584583
Heightened Def Con from 0.00584583 to 0.00584583
Heightened Def Con from 0.00584583 to 0.00584583
Heightened Def Con from 0.00584583 to 0.00584583
Heightened Def Con from 0.00584583 to 0.00584583
Heightened Def Con from 0.00584583 to 0.00584584
Heightened Def Con from 0.00584584 to 0.00584584
Heightened Def Con from 0.00584584 to 0.00584584
Heightened Def Con from 0.00584584 to 0.00584584
Heightened Def Con from 0.00584585 to 0.00584585
Heightened Def Con from 0.00584591 to 0.00584591
Heightened Def Con from 0.00584591 to 0.00584592
Heightened Def Con from 0.00584592 to 0.00584592
Heightened Def Con from 0.00584592 to 0.00584592
Heightened Def Con from 0.00584592 to 0.00584592
Heightened Def Con from 0.00584592 to 0.00584592
Heightened Def Con from 0.00584607 to 0.00584607
Heightened Def Con from 0.00584607 to 0.00584607
Heightened Def Con from 0.00584607 to 0.00584607
Heightened Def Con from 0.00584607 +to 0.00584607
Heightened Def Con from 0.00584608 to 0.00584608
Heightened Def Con from 0.00584608 to 0.00584608
Heightened Def Con from 0.00584609 to 0.00584609
Heightened Def Con from 0.00584609 to 0.00584609
Heightened Def Con from 0.00584616 to 0.00584616
Heightened Def Con from 0.00584616 to 0.00584616
Heightened Def Con from 0.00584617 to 0.00584617
Heightened Def Con from 0.00584617 to 0.00584617
Heightened Def Con from 0.00584617 to 0.00584617
Heightened Def Con from 0.00584617 to 0.00584617
Heightened Def Con from 0.00584617 to 0.00584618
Heightened Def Con from 0.00584618 to 0.00584618
Heightened Def Con from 0.00584618 to 0.00584618
Heightened Def Con from 0.0058462 to 0.0058462
Heightened Def Con from 0.00584622 to 0.00584622
Heightened Def Con from 0.00584622 to 0.00584622
Heightened Def Con from 0.00584622 to 0.00584623
Heightened Def Con from 0.00584623 to 0.00584623
Heightened Def Con from 0.00584623 to 0.00584623
Heightened Def Con from 0.00584623 to 0.00584623
Heightened Def Con from 0.00584623 to 0.00584623
Heightened Def Con from 0.00584623 to 0.00584623
Heightened Def Con from 0.00584623 to 0.00584623
Heightened Def Con from 0.005852 to 0.005852
Heightened Def Con from 0.00585201 to 0.00585201
Heightened Def Con from 0.00585201 to 0.00585201
Heightened Def Con from 0.00585201 to 0.00585201
Heightened Def Con from 0.00585201 to 0.00585201
Heightened Def Con from 0.00585202 to 0.00585202
Heightened Def Con from 0.00585203 to 0.00585203
Heightened Def Con from 0.00585203 to 0.00585203
Heightened Def Con from 0.00585205 to 0.00585205
Heightened Def Con from 0.00585205 to 0.00585205
Heightened Def Con from 0.00585205 to 0.00585206
Heightened Def Con from 0.00585206 to 0.00585206
Heightened Def Con from 0.00585206 to 0.00585206
Heightened Def Con from 0.00585206 to 0.00585207
Heightened Def Con from 0.00585207 to 0.00585207
Heightened Def Con from 0.00585207 to 0.00585207
Heightened Def Con from 0.00585207 to 0.00585207
Heightened Def Con from 0.00585207 to 0.00585207
Heightened Def Con from 0.00585207 to 0.00585207
Heightened Def Con from 0.00585207 to 0.00585207
Heightened Def Con from 0.00585207 to 0.00585207
Heightened Def Con from 0.00585207 to 0.00585207
Heightened Def Con from 0.00585259 to 0.00585259
Heightened Def Con from 0.00585259 to 0.00585259
Heightened Def Con from 0.00585259 to 0.00585259
Heightened Def Con from 0.0058526 to 0.0058526
Heightened Def Con from 0.00585261 to 0.00585261
Heightened Def Con from 0.00585262 to 0.00585262
Heightened Def Con from 0.00585262 to 0.00585262
Heightened Def Con from 0.00585262 to 0.00585262
Heightened Def Con from 0.00585262 to 0.00585262
Heightened Def Con from 0.00585262 to 0.00585262
Heightened Def Con from 0.00585263 to 0.00585263
Heightened Def Con from 0.00585263 to 0.00585263
Heightened Def Con from 0.00585263 to 0.00585263
Heightened Def Con from 0.00585266 +to 0.00585266
Heightened Def Con from 0.00585267 to 0.00585267
Heightened Def Con from 0.00585267 to 0.00585267
Heightened Def Con from 0.00585275 to 0.00585275
Heightened Def Con from 0.00585275 to 0.00585275
Heightened Def Con from 0.00585275 to 0.00585276
Heightened Def Con from 0.00585276 to 0.00585276
Heightened Def Con from 0.00585276 to 0.00585276
Heightened Def Con from 0.00585279 to 0.00585279
Heightened Def Con from 0.00585279 to 0.00585279
Heightened Def Con from 0.00585292 to 0.00585292
Heightened Def Con from 0.00585293 to 0.00585293
Heightened Def Con from 0.00585293 to 0.00585293
Heightened Def Con from 0.00585293 to 0.00585293
Heightened Def Con from 0.00585294 to 0.00585294
Heightened Def Con from 0.00585294 to 0.00585294
Heightened Def Con from 0.00585294 to 0.00585294
Heightened Def Con from 0.00585294 to 0.00585294
Heightened Def Con from 0.00585294 to 0.00585294
Heightened Def Con from 0.00585294 to 0.00585294
Heightened Def Con from 0.00585294 to 0.00585294
Heightened Def Con from 0.00585294 to 0.00585294
Heightened Def Con from 0.00585301 to 0.00585301
Heightened Def Con from 0.00585301 to 0.00585301
Heightened Def Con from 0.00585301 to 0.00585301
Heightened Def Con from 0.00585301 to 0.00585301
Heightened Def Con from 0.00585301 to 0.00585302
Heightened Def Con from 0.00585302 to 0.00585302
Heightened Def Con from 0.00585302 to 0.00585302
Heightened Def Con from 0.00585302 to 0.00585302
Heightened Def Con from 0.00585302 to 0.00585302
Heightened Def Con from 0.00585305 to 0.00585305
Heightened Def Con from 0.00585306 to 0.00585306
Heightened Def Con from 0.00585306 to 0.00585306
Heightened Def Con from 0.00585306 to 0.00585306
Heightened Def Con from 0.00585306 to 0.00585306
Heightened Def Con from 0.00585306 to 0.00585306
Heightened Def Con from 0.00585307 to 0.00585307
Heightened Def Con from 0.00585307 to 0.00585307
Heightened Def Con from 0.00585307 to 0.00585307
Heightened Def Con from 0.00585307 to 0.00585307
Heightened Def Con from 0.00585307 to 0.00585307
Heightened Def Con from 0.00585308 to 0.00585308
Heightened Def Con from 0.00585308 to 0.00585309
Heightened Def Con from 0.00585309 +to 0.00585309
Heightened Def Con from 0.00585309 to 0.00585309
Heightened Def Con from 0.00585309 to 0.00585309
Heightened Def Con from 0.00585309 to 0.00585309
Heightened Def Con from 0.00585309 to 0.00585309
Heightened Def Con from 0.00585309 to 0.00585309
Heightened Def Con from 0.00585309 to 0.00585309
Heightened Def Con from 0.00585313 to 0.00585313
Heightened Def Con from 0.00585313 to 0.00585313
Heightened Def Con from 0.00585313 to 0.00585313
Heightened Def Con from 0.00585313 to 0.00585313
Heightened Def Con from 0.00585313 to 0.00585313
Heightened Def Con from 0.00585313 to 0.00585313
Heightened Def Con from 0.00585313 to 0.00585313
Heightened Def Con from 0.00585313 to 0.00585313
Heightened Def Con from 0.00585313 to 0.00585313
Heightened Def Con from 0.00585317 to 0.00585317
Heightened Def Con from 0.00585317 to 0.00585317
Heightened Def Con from 0.00585317 to 0.00585317
Heightened Def Con from 0.00585318 to 0.00585318
Heightened Def Con from 0.00585319 to 0.00585319
Heightened Def Con from 0.00585319 to 0.00585319
Heightened Def Con from 0.00585319 to 0.00585319
Heightened Def Con from 0.00585319 ++to 0.00585319
Heightened Def Con from 0.00585319 to 0.00585319
Heightened Def Con from 0.00585319 to 0.00585319
Heightened Def Con from 0.00585319 to 0.00585319
Heightened Def Con from 0.00585319 +to 0.0058532
Heightened Def Con from 0.0058532 to 0.0058532
Heightened Def Con from 0.0058532 to 0.0058532
Heightened Def Con from 0.0058532 to 0.0058532
Heightened Def Con from 0.0058532 to 0.0058532
Heightened Def Con from 0.0058532 to 0.0058532
Heightened Def Con from 0.0058532 to 0.00585321
Heightened Def Con from 0.00585321 to 0.00585321
Heightened Def Con from 0.00585321 to 0.00585321
Heightened Def Con from 0.00585322 to 0.00585322
Heightened Def Con from 0.00585322 to 0.00585322
Heightened Def Con from 0.00585322 to 0.00585322
Heightened Def Con from 0.00585322 to 0.00585322
Heightened Def Con from 0.00585324 to 0.00585324
Heightened Def Con from 0.00585324 to 0.00585324
Heightened Def Con from 0.00585324 to 0.00585325
Heightened Def Con from 0.00585325 to 0.00585325
Heightened Def Con from 0.00585325 to 0.00585325
Heightened Def Con from 0.00585325 to 0.00585325
Heightened Def Con from 0.00585325 to 0.00585325
Heightened Def Con from 0.00585325 to 0.00585326
Heightened Def Con from 0.00585327 to 0.00585327
Heightened Def Con from 0.00585327 to 0.00585328
Heightened Def Con from 0.00585328 to 0.00585328
Heightened Def Con from 0.00585328 to 0.00585328
Heightened Def Con from 0.00585328 to 0.00585328
Heightened Def Con from 0.00585328 to 0.00585328
Heightened Def Con from 0.00585328 to 0.00585328
Heightened Def Con from 0.00585328 to 0.00585328
Heightened Def Con from 0.00585328 to 0.00585328
Heightened Def Con from 0.00585328 to 0.00585328
Heightened Def Con from 0.00585328 to 0.00585329
Heightened Def Con from 0.00585329 to 0.00585329
Heightened Def Con from 0.00585329 +to 0.00585329
Heightened Def Con from 0.00585329 to 0.00585329
Heightened Def Con from 0.00585329 to 0.00585329
Heightened Def Con from 0.00585329 to 0.00585329
Heightened Def Con from 0.00585329 to 0.00585329
Heightened Def Con from 0.00585329 to 0.00585329
Heightened Def Con from 0.00585329 to 0.00585329
Heightened Def Con from 0.00585329 to 0.00585329
Heightened Def Con from 0.00585329 to 0.0058533
Heightened Def Con from 0.0058533 to 0.0058533
Heightened Def Con from 0.0058533 to 0.0058533
Heightened Def Con from 0.0058533 to 0.0058533
Heightened Def Con from 0.00585332 to 0.00585332
Heightened Def Con from 0.00585332 to 0.00585332
Heightened Def Con from 0.00585333 to 0.00585334
Heightened Def Con from 0.00585337 to 0.00585337
Heightened Def Con from 0.00585337 to 0.00585337
Heightened Def Con from 0.00585337 to 0.00585337
Heightened Def Con from 0.00585337 to 0.00585337
Heightened Def Con from 0.00585337 to 0.00585337
Heightened Def Con from 0.00585337 to 0.00585338
Heightened Def Con from 0.00585338 to 0.00585338
Heightened Def Con from 0.00585341 to 0.00585341
Heightened Def Con from 0.00585415 to 0.00585415
Heightened Def Con from 0.00585416 to 0.00585416
Heightened Def Con from 0.00585416 to 0.00585416
Heightened Def Con from 0.00585416 to 0.00585416
Heightened Def Con from 0.00585416 to 0.00585417
Heightened Def Con from 0.00585417 to 0.00585417
Heightened Def Con from 0.00585417 to 0.00585417
Heightened Def Con from 0.00585417 +to 0.00585417
Heightened Def Con from 0.00585418 to 0.00585418
Heightened Def Con from 0.00585421 to 0.00585421
Heightened Def Con from 0.00585421 to 0.00585421
Heightened Def Con from 0.00585421 to 0.00585421
Heightened Def Con from 0.00585425 to 0.00585425
Heightened Def Con from 0.00585428 to 0.00585428
Heightened Def Con from 0.00585428 to 0.00585428
Heightened Def Con from 0.00585428 to 0.00585428
Heightened Def Con from 0.00585428 to 0.00585429
Heightened Def Con from 0.00585429 to 0.00585429
Heightened Def Con from 0.00585429 to 0.00585429
Heightened Def Con from 0.00585429 to 0.0058543
Heightened Def Con from 0.0058543 to 0.0058543
Heightened Def Con from 0.0058543 ++to 0.0058543
Heightened Def Con from 0.0058543 to 0.0058543
Heightened Def Con from 0.0058543 to 0.0058543
Heightened Def Con from 0.00585433 to 0.00585433
Heightened Def Con from 0.00585434 to 0.00585434
Heightened Def Con from 0.00585434 to 0.00585434
Heightened Def Con from 0.00585437 to 0.00585437
Heightened Def Con from 0.00585437 to 0.00585437
Heightened Def Con from 0.00585437 to 0.00585437
Heightened Def Con from 0.00585437 to 0.00585437
Heightened Def Con from 0.00585437 to 0.00585437
Heightened Def Con from 0.00585437 to 0.00585438
Heightened Def Con from 0.00585438 to 0.00585438
Heightened Def Con from 0.00585438 to 0.00585438
Heightened Def Con from 0.00585441 to 0.00585441
Heightened Def Con from 0.00585441 to 0.00585441
Heightened Def Con from 0.00585442 to 0.00585442
Heightened Def Con from 0.00585442 to 0.00585442
Heightened Def Con from 0.00585442 to 0.00585442
Heightened Def Con from 0.00585442 +to 0.00585442
Heightened Def Con from 0.00585443 to 0.00585443
Heightened Def Con from 0.00585443 to 0.00585443
Heightened Def Con from 0.00585443 to 0.00585443
Heightened Def Con from 0.00585443 to 0.00585443
Heightened Def Con from 0.00585443 to 0.00585443
Heightened Def Con from 0.00585443 to 0.00585444
Heightened Def Con from 0.00585444 to 0.00585444
Heightened Def Con from 0.00585444 to 0.00585444
Heightened Def Con from 0.00585444 to 0.00585445
Heightened Def Con from 0.0058545 to 0.0058545
Heightened Def Con from 0.0058547 to 0.00585471
Heightened Def Con from 0.005855 to 0.005855
Heightened Def Con from 0.005855 to 0.005855
Heightened Def Con from 0.005855 to 0.005855
Heightened Def Con from 0.005855 to 0.005855
Heightened Def Con from 0.005855 to 0.005855
Heightened Def Con from 0.005855 to 0.005855
Heightened Def Con from 0.005855 to 0.005855
Heightened Def Con from 0.005855 to 0.005855
Heightened Def Con from 0.005855 to 0.005855
Heightened Def Con from 0.005855 to 0.005855
Heightened Def Con from 0.005855 to 0.005855
Heightened Def Con from 0.005855 to 0.00585501
Heightened Def Con from 0.00585501 to 0.00585501
Heightened Def Con from 0.00585501 to 0.00585501
Heightened Def Con from 0.00585502 to 0.00585502
Heightened Def Con from 0.00585502 to 0.00585502
Heightened Def Con from 0.00585502 to 0.00585502
Heightened Def Con from 0.00585502 to 0.00585502
Heightened Def Con from 0.00585502 to 0.00585502
Heightened Def Con from 0.00585504 to 0.00585504
Heightened Def Con from 0.00585504 to 0.00585504
Heightened Def Con from 0.00585505 to 0.00585506
Heightened Def Con from 0.00585506 to 0.00585506
Heightened Def Con from 0.00585506 to 0.00585506
Heightened Def Con from 0.00585506 to 0.00585506
Heightened Def Con from 0.00585506 to 0.00585506
Heightened Def Con from 0.00585506 to 0.00585506
Heightened Def Con from 0.00585506 to 0.00585506
Heightened Def Con from 0.00585506 to 0.00585506
Heightened Def Con from 0.00585506 to 0.00585506
Heightened Def Con from 0.00585506 to 0.00585506
Heightened Def Con from 0.00585506 to 0.00585506
Heightened Def Con from 0.00585509 to 0.00585509
Heightened Def Con from 0.00585509 to 0.00585509
Heightened Def Con from 0.0058555 to 0.0058555
Heightened Def Con from 0.0058555 to 0.0058555
Heightened Def Con from 0.0058555 to 0.0058555
Heightened Def Con from 0.00585554 to 0.00585554
Heightened Def Con from 0.00585555 to 0.00585555
Heightened Def Con from 0.00585555 to 0.00585555
Heightened Def Con from 0.00585555 to 0.00585555
Heightened Def Con from 0.00585556 to 0.00585556
Heightened Def Con from 0.00585556 to 0.00585556
Heightened Def Con from 0.00585556 to 0.00585556
Heightened Def Con from 0.00585556 to 0.00585556
Heightened Def Con from 0.00585556 to 0.00585556
Heightened Def Con from 0.00585556 to 0.00585556
Heightened Def Con from 0.00585556 to 0.00585556
Heightened Def Con from 0.00585557 to 0.00585557
Heightened Def Con from 0.00585557 to 0.00585557
Heightened Def Con from 0.00585557 to 0.00585557
Heightened Def Con from 0.00585558 to 0.00585558
Heightened Def Con from 0.00585558 to 0.00585558
Heightened Def Con from 0.00585558 to 0.00585558
Heightened Def Con from 0.00585558 to 0.00585558
Heightened Def Con from 0.00585559 to 0.00585559
Heightened Def Con from 0.00585559 to 0.00585559
Heightened Def Con from 0.00585559 to 0.00585559
Heightened Def Con from 0.00585559 to 0.00585559
Heightened Def Con from 0.00585559 to 0.00585559
Heightened Def Con from 0.00585559 to 0.00585559
Heightened Def Con from 0.0058556 to 0.0058556
Heightened Def Con from 0.0058556 to 0.0058556
Heightened Def Con from 0.0058556 to 0.0058556
Heightened Def Con from 0.0058556 to 0.0058556
Heightened Def Con from 0.0058556 to 0.0058556
Heightened Def Con from 0.0058556 to 0.0058556
Heightened Def Con from 0.00585563 to 0.00585564
Heightened Def Con from 0.00585565 to 0.00585565
Heightened Def Con from 0.00585568 to 0.00585568
Heightened Def Con from 0.00585568 to 0.00585569
Heightened Def Con from 0.00585569 to 0.00585569
Heightened Def Con from 0.00585569 to 0.00585569
Heightened Def Con from 0.00585569 to 0.00585569
Heightened Def Con from 0.00585569 to 0.00585569
Heightened Def Con from 0.0058557 to 0.0058557
Heightened Def Con from 0.0058557 to 0.0058557
Heightened Def Con from 0.0058557 to 0.0058557
Heightened Def Con from 0.0058557 to 0.0058557
Heightened Def Con from 0.0058557 to 0.0058557
Heightened Def Con from 0.00585577 to 0.00585577
Heightened Def Con from 0.00585577 to 0.00585577
Heightened Def Con from 0.00585577 to 0.00585577
Heightened Def Con from 0.00585577 to 0.00585578
Heightened Def Con from 0.00585578 to 0.00585578
Heightened Def Con from 0.00585578 to 0.00585578
Heightened Def Con from 0.0058558 to 0.0058558
Heightened Def Con from 0.0058558 to 0.0058558
Heightened Def Con from 0.0058558 to 0.00585581
Heightened Def Con from 0.00585583 to 0.00585583
Heightened Def Con from 0.00585583 to 0.00585584
Heightened Def Con from 0.00585584 to 0.00585584
Heightened Def Con from 0.00585585 to 0.00585585
Heightened Def Con from 0.00585585 to 0.00585585
Heightened Def Con from 0.00585585 to 0.00585585
Heightened Def Con from 0.00585585 to 0.00585585
Heightened Def Con from 0.00585585 to 0.00585585
Heightened Def Con from 0.00585585 to 0.00585585
Heightened Def Con from 0.00585586 to 0.00585586
Heightened Def Con from 0.00585586 to 0.00585586
Heightened Def Con from 0.00585586 to 0.00585587
Heightened Def Con from 0.00585587 to 0.00585587
Heightened Def Con from 0.00585587 to 0.00585587
Heightened Def Con from 0.00585587 to 0.00585587
Heightened Def Con from 0.00585587 to 0.00585587
Heightened Def Con from 0.00585588 to 0.00585588
Heightened Def Con from 0.00585589 to 0.00585589
Heightened Def Con from 0.00585589 to 0.00585589
Heightened Def Con from 0.0058559 to 0.0058559
Heightened Def Con from 0.0058559 to 0.0058559
Heightened Def Con from 0.0058559 to 0.0058559
Heightened Def Con from 0.0058559 to 0.0058559
Heightened Def Con from 0.0058559 to 0.0058559
Heightened Def Con from 0.00585591 to 0.00585591
Heightened Def Con from 0.00585591 to 0.00585591
Heightened Def Con from 0.00585595 to 0.00585595
Heightened Def Con from 0.00585595 to 0.00585595
Heightened Def Con from 0.00585595 to 0.00585595
Heightened Def Con from 0.00585595 to 0.00585595
Heightened Def Con from 0.00585595 to 0.00585595
Heightened Def Con from 0.00585595 to 0.00585595
Heightened Def Con from 0.00585596 to 0.00585596
Heightened Def Con from 0.00585596 to 0.00585596
Heightened Def Con from 0.00585596 to 0.00585596
Heightened Def Con from 0.00585596 to 0.00585596
Heightened Def Con from 0.00585597 to 0.00585597
Heightened Def Con from 0.00585597 to 0.00585597
Heightened Def Con from 0.00585597 to 0.00585598
Heightened Def Con from 0.00585598 to 0.00585598
Heightened Def Con from 0.00585598 to 0.00585598
Heightened Def Con from 0.00585599 to 0.00585599
Heightened Def Con from 0.0058674 to 0.0058674
Heightened Def Con from 0.0058674 +to 0.0058674
Heightened Def Con from 0.00586741 to 0.00586741
Heightened Def Con from 0.00586741 to 0.00586741
Heightened Def Con from 0.00586741 to 0.00586741
Heightened Def Con from 0.00586741 to 0.00586742
Heightened Def Con from 0.00586742 to 0.00586742
Heightened Def Con from 0.00586742 to 0.00586742
Heightened Def Con from 0.00586742 to 0.00586742
Heightened Def Con from 0.00586742 to 0.00586742
Heightened Def Con from 0.00586742 to 0.00586742
Heightened Def Con from 0.00586742 to 0.00586742
Heightened Def Con from 0.00586742 to 0.00586742
Heightened Def Con from 0.00586743 to 0.00586743
Heightened Def Con from 0.00586743 to 0.00586743
Heightened Def Con from 0.00586743 to 0.00586743
Heightened Def Con from 0.00586743 to 0.00586744
Heightened Def Con from 0.00586744 to 0.00586744
Heightened Def Con from 0.00586744 to 0.00586744
Heightened Def Con from 0.00586744 to 0.00586744
Heightened Def Con from 0.00586744 to 0.00586744
Heightened Def Con from 0.00586751 to 0.00586751
Heightened Def Con from 0.00586757 to 0.00586757
Heightened Def Con from 0.00586757 to 0.00586757
Heightened Def Con from 0.00586757 to 0.00586757
Heightened Def Con from 0.00586757 to 0.00586758
Heightened Def Con from 0.00586758 to 0.00586758
Heightened Def Con from 0.0058676 to 0.0058676
Heightened Def Con from 0.0058676 to 0.0058676
Heightened Def Con from 0.0058676 to 0.0058676
Heightened Def Con from 0.0058676 to 0.0058676
Heightened Def Con from 0.00586767 to 0.00586767
Heightened Def Con from 0.00586767 to 0.00586767
Heightened Def Con from 0.00586769 to 0.00586769
Heightened Def Con from 0.00586769 to 0.0058677
Heightened Def Con from 0.00586783 to 0.00586783
Heightened Def Con from 0.00586784 to 0.00586784
Heightened Def Con from 0.00586784 to 0.00586784
Heightened Def Con from 0.00586784 to 0.00586784
Heightened Def Con from 0.00586785 to 0.00586785
Heightened Def Con from 0.00586785 to 0.00586785
Heightened Def Con from 0.00586785 to 0.00586785
Heightened Def Con from 0.00586785 to 0.00586785
Heightened Def Con from 0.00586786 to 0.00586786
Heightened Def Con from 0.00586786 to 0.00586786
Heightened Def Con from 0.00586792 to 0.00586792
Heightened Def Con from 0.00586792 to 0.00586792
Heightened Def Con from 0.00586792 to 0.00586792
Heightened Def Con from 0.00586792 to 0.00586792
Heightened Def Con from 0.00586792 to 0.00586792
Heightened Def Con from 0.00586793 to 0.00586793
Heightened Def Con from 0.00586793 to 0.00586793
Heightened Def Con from 0.00586793 to 0.00586794
Heightened Def Con from 0.00586794 to 0.00586794
Heightened Def Con from 0.00586794 to 0.00586794
Heightened Def Con from 0.00586794 to 0.00586794
Heightened Def Con from 0.00586794 to 0.00586794
Heightened Def Con from 0.00586794 to 0.00586794
Heightened Def Con from 0.00586794 to 0.00586794
Heightened Def Con from 0.00586795 to 0.00586795
Heightened Def Con from 0.00586795 to 0.00586795
Heightened Def Con from 0.00586795 to 0.00586795
Heightened Def Con from 0.00586795 to 0.00586795
Heightened Def Con from 0.00586795 to 0.00586795
Heightened Def Con from 0.00586795 to 0.00586795
Heightened Def Con from 0.00586795 to 0.00586796
Heightened Def Con from 0.00586796 to 0.00586796
Heightened Def Con from 0.00586796 to 0.00586796
Heightened Def Con from 0.00586797 to 0.00586797
Heightened Def Con from 0.00586798 to 0.00586798
Heightened Def Con from 0.00586798 to 0.00586798
Heightened Def Con from 0.00586799 +to 0.00586799
Heightened Def Con from 0.00586799 to 0.00586799
Heightened Def Con from 0.00586799 to 0.00586799
Heightened Def Con from 0.00586799 to 0.00586799
Heightened Def Con from 0.00586799 to 0.005868
Heightened Def Con from 0.005868 to 0.005868
Heightened Def Con from 0.00586801 to 0.00586801
Heightened Def Con from 0.00586801 to 0.00586801
Heightened Def Con from 0.00586801 to 0.00586802
Heightened Def Con from 0.00586802 to 0.00586802
Heightened Def Con from 0.00586802 to 0.00586802
Heightened Def Con from 0.00586802 to 0.00586802
Heightened Def Con from 0.00586804 to 0.00586804
Heightened Def Con from 0.00586804 to 0.00586804
Heightened Def Con from 0.00586806 to 0.00586806
Heightened Def Con from 0.00586806 to 0.00586806
Heightened Def Con from 0.00586806 to 0.00586806
Heightened Def Con from 0.00586806 to 0.00586806
Heightened Def Con from 0.00586806 to 0.00586806
Heightened Def Con from 0.00586806 to 0.00586806
Heightened Def Con from 0.00586806 to 0.00586807
Heightened Def Con from 0.00586807 to 0.00586807
Heightened Def Con from 0.00586807 to 0.00586807
Heightened Def Con from 0.00586807 to 0.00586807
Heightened Def Con from 0.00586807 to 0.00586807
Heightened Def Con from 0.00586807 +to 0.00586808
Heightened Def Con from 0.00586808 to 0.00586808
Heightened Def Con from 0.00586808 to 0.00586808
Heightened Def Con from 0.00586808 to 0.00586808
Heightened Def Con from 0.00586822 to 0.00586822
Heightened Def Con from 0.00586822 to 0.00586822
Heightened Def Con from 0.00586822 to 0.00586822
Heightened Def Con from 0.00586822 to 0.00586822
Heightened Def Con from 0.00586823 to 0.00586823
Heightened Def Con from 0.00586949 to 0.00586949
Heightened Def Con from 0.0058695 to 0.0058695
Heightened Def Con from 0.0058695 to 0.0058695
Heightened Def Con from 0.0058695 to 0.0058695
Heightened Def Con from 0.0058695 to 0.0058695
Heightened Def Con from 0.0058695 to 0.0058695
Heightened Def Con from 0.00586951 to 0.00586951
Heightened Def Con from 0.00586951 to 0.00586951
Heightened Def Con from 0.00586952 to 0.00586952
Heightened Def Con from 0.00586952 to 0.00586952
Heightened Def Con from 0.00586952 to 0.00586953
Heightened Def Con from 0.00586953 to 0.00586953
Heightened Def Con from 0.00586953 to 0.00586954
Heightened Def Con from 0.00586954 to 0.00586954
Heightened Def Con from 0.00586954 to 0.00586954
Heightened Def Con from 0.00586954 to 0.00586954
Heightened Def Con from 0.00586954 to 0.00586955
Heightened Def Con from 0.00586955 to 0.00586955
Heightened Def Con from 0.00586955 to 0.00586955
Heightened Def Con from 0.00586955 to 0.00586955
Heightened Def Con from 0.00586956 to 0.00586956
Heightened Def Con from 0.00586962 to 0.00586962
Heightened Def Con from 0.00586964 to 0.00586964
Heightened Def Con from 0.00586964 to 0.00586964
Heightened Def Con from 0.00586964 to 0.00586964
Heightened Def Con from 0.00586964 to 0.00586965
Heightened Def Con from 0.00586966 to 0.00586966
Heightened Def Con from 0.00586966 to 0.00586966
Heightened Def Con from 0.00586966 to 0.00586966
Heightened Def Con from 0.00586966 to 0.00586966
Heightened Def Con from 0.00586966 to 0.00586966
Heightened Def Con from 0.00586966 to 0.00586967
Heightened Def Con from 0.00586967 to 0.00586967
Heightened Def Con from 0.00586967 to 0.00586967
Heightened Def Con from 0.00586969 to 0.00586969
Heightened Def Con from 0.0058697 to 0.0058697
Heightened Def Con from 0.0058697 to 0.0058697
Heightened Def Con from 0.0058697 to 0.0058697
Heightened Def Con from 0.0058697 to 0.0058697
Heightened Def Con from 0.0058697 to 0.0058697
Heightened Def Con from 0.0058697 to 0.0058697
Heightened Def Con from 0.0058697 to 0.0058697
Heightened Def Con from 0.0058697 to 0.00586971
Heightened Def Con from 0.00586971 +to 0.00586971
Heightened Def Con from 0.00586971 to 0.00586971
Heightened Def Con from 0.00586971 to 0.00586971
Heightened Def Con from 0.00586972 to 0.00586972
Heightened Def Con from 0.00586972 to 0.00586972
Heightened Def Con from 0.00586974 to 0.00586974
Heightened Def Con from 0.00586974 to 0.00586974
Heightened Def Con from 0.00586974 to 0.00586974
Heightened Def Con from 0.00586974 to 0.00586974
Heightened Def Con from 0.00586974 to 0.00586974
Heightened Def Con from 0.00586974 to 0.00586974
Heightened Def Con from 0.00586974 to 0.00586974
Heightened Def Con from 0.00586974 to 0.00586974
Heightened Def Con from 0.00586974 to 0.00586974
Heightened Def Con from 0.00586974 to 0.00586975
Heightened Def Con from 0.0058698 to 0.0058698
Heightened Def Con from 0.0058698 to 0.00586981
Heightened Def Con from 0.00586981 to 0.00586981
Heightened Def Con from 0.00586981 to 0.00586981
Heightened Def Con from 0.00586981 to 0.00586981
Heightened Def Con from 0.00586981 to 0.00586982
Heightened Def Con from 0.00586982 to 0.00586982
Heightened Def Con from 0.00586982 to 0.00586982
Heightened Def Con from 0.00586982 to 0.00586982
Heightened Def Con from 0.00586982 to 0.00586982
Heightened Def Con from 0.00586982 to 0.00586982
Heightened Def Con from 0.00586982 to 0.00586982
Heightened Def Con from 0.00586982 to 0.00586982
Heightened Def Con from 0.00586983 to 0.00586983
Heightened Def Con from 0.00586983 to 0.00586983
Heightened Def Con from 0.00586983 to 0.00586983
Heightened Def Con from 0.00586984 to 0.00586984
Heightened Def Con from 0.00586984 to 0.00586984
Heightened Def Con from 0.00586984 +to 0.00586984
Heightened Def Con from 0.00586986 to 0.00586986
Heightened Def Con from 0.00586986 to 0.00586987
Heightened Def Con from 0.00586987 to 0.00586987
Heightened Def Con from 0.00586987 to 0.00586987
Heightened Def Con from 0.00586987 to 0.00586987
Heightened Def Con from 0.00586988 to 0.00586988
Heightened Def Con from 0.00586988 to 0.00586988
Heightened Def Con from 0.00586988 to 0.00586988
Heightened Def Con from 0.00586988 to 0.00586988
Heightened Def Con from 0.00586988 to 0.00586988
Heightened Def Con from 0.00587019 to 0.00587019
Heightened Def Con from 0.00587019 to 0.00587019
Heightened Def Con from 0.00587019 to 0.00587019
Heightened Def Con from 0.00587019 to 0.0058702
Heightened Def Con from 0.0058702 to 0.0058702
Heightened Def Con from 0.0058702 to 0.0058702
Heightened Def Con from 0.0058702 to 0.0058702
Heightened Def Con from 0.0058702 to 0.0058702
Heightened Def Con from 0.0058702 to 0.0058702
Heightened Def Con from 0.0058702 to 0.0058702
Heightened Def Con from 0.0058702 to 0.0058702
Heightened Def Con from 0.0058702 to 0.00587021
Heightened Def Con from 0.00587021 to 0.00587021
Heightened Def Con from 0.00587021 to 0.00587021
Heightened Def Con from 0.00587028 to 0.00587028
Heightened Def Con from 0.00587029 to 0.00587029
Heightened Def Con from 0.00587029 to 0.00587029
Heightened Def Con from 0.00587029 to 0.00587029
Heightened Def Con from 0.00587029 to 0.00587029
Heightened Def Con from 0.00587029 to 0.00587029
Heightened Def Con from 0.00587029 to 0.00587029
Heightened Def Con from 0.00587029 to 0.00587029
Heightened Def Con from 0.00587029 to 0.00587029
Heightened Def Con from 0.00587029 to 0.0058703
Heightened Def Con from 0.0058703 to 0.0058703
Heightened Def Con from 0.00587081 to 0.00587081
Heightened Def Con from 0.00587081 to 0.00587081
Heightened Def Con from 0.00587081 to 0.00587081
Heightened Def Con from 0.00587081 to 0.00587081
Heightened Def Con from 0.00587082 to 0.00587082
Heightened Def Con from 0.00587082 to 0.00587082
Heightened Def Con from 0.00587083 to 0.00587083
Heightened Def Con from 0.00587083 to 0.00587083
Heightened Def Con from 0.00587093 to 0.00587094
Heightened Def Con from 0.00587094 to 0.00587094
Heightened Def Con from 0.00587094 to 0.00587094
Heightened Def Con from 0.00587094 to 0.00587094
Heightened Def Con from 0.00587094 to 0.00587095
Heightened Def Con from 0.00587095 to 0.00587095
Heightened Def Con from 0.00587095 to 0.00587095
Heightened Def Con from 0.00587098 to 0.00587098
Heightened Def Con from 0.00587098 to 0.00587099
Heightened Def Con from 0.00587376 to 0.00587376
Heightened Def Con from 0.00587376 to 0.00587376
Heightened Def Con from 0.00587376 to 0.00587376
Heightened Def Con from 0.00587376 to 0.00587377
Heightened Def Con from 0.00587381 to 0.00587381
Heightened Def Con from 0.00587381 to 0.00587381
Heightened Def Con from 0.00587381 to 0.00587382
Heightened Def Con from 0.00587382 to 0.00587382
Heightened Def Con from 0.00587384 to 0.00587384
Heightened Def Con from 0.00587384 to 0.00587385
Heightened Def Con from 0.00587385 to 0.00587385
Heightened Def Con from 0.00587385 to 0.00587385
Heightened Def Con from 0.00587385 to 0.00587385
Heightened Def Con from 0.00587385 to 0.00587385
Heightened Def Con from 0.00587385 to 0.00587385
Heightened Def Con from 0.00587385 to 0.00587386
Heightened Def Con from 0.00587392 to 0.00587392
Heightened Def Con from 0.00587392 to 0.00587393
Heightened Def Con from 0.00587393 to 0.00587393
Heightened Def Con from 0.00587393 to 0.00587393
Heightened Def Con from 0.00587489 to 0.00587489
Heightened Def Con from 0.0058749 to 0.0058749
Heightened Def Con from 0.0058749 to 0.0058749
Heightened Def Con from 0.0058749 to 0.00587491
Heightened Def Con from 0.00587491 to 0.00587491
Heightened Def Con from 0.00587491 to 0.00587491
Heightened Def Con from 0.00587491 to 0.00587491
Heightened Def Con from 0.00587491 to 0.00587491
Heightened Def Con from 0.00587491 to 0.00587491
Heightened Def Con from 0.00587491 to 0.00587492
Heightened Def Con from 0.00587492 to 0.00587492
Heightened Def Con from 0.00587496 to 0.00587496
Heightened Def Con from 0.00587496 to 0.00587496
Heightened Def Con from 0.00587496 to 0.00587496
Heightened Def Con from 0.00587496 to 0.00587496
Heightened Def Con from 0.00587497 to 0.00587497
Heightened Def Con from 0.00587705 to 0.00587705
Heightened Def Con from 0.00587706 to 0.00587706
Heightened Def Con from 0.00587706 to 0.00587707
Heightened Def Con from 0.00587707 to 0.00587707
Heightened Def Con from 0.00587707 to 0.00587707
Heightened Def Con from 0.00587707 to 0.00587707
Heightened Def Con from 0.00587724 to 0.00587724
Heightened Def Con from 0.00587724 to 0.00587724
Heightened Def Con from 0.00587724 +to 0.00587725
Heightened Def Con from 0.00587726 to 0.00587726
Heightened Def Con from 0.00587732 to 0.00587732
Heightened Def Con from 0.00587732 to 0.00587732
Heightened Def Con from 0.00587732 to 0.00587732
Heightened Def Con from 0.00587732 to 0.00587732
Heightened Def Con from 0.00587733 to 0.00587733
Heightened Def Con from 0.00587733 to 0.00587733
Heightened Def Con from 0.00587733 to 0.00587734
Heightened Def Con from 0.00587734 to 0.00587734
Heightened Def Con from 0.00587734 to 0.00587734
Heightened Def Con from 0.00587734 to 0.00587734
Heightened Def Con from 0.00587735 to 0.00587735
Heightened Def Con from 0.00587879 to 0.00587879
Heightened Def Con from 0.00587895 to 0.00587895
Heightened Def Con from 0.00587896 to 0.00587896
Heightened Def Con from 0.00587896 to 0.00587896
Heightened Def Con from 0.00587896 to 0.00587896
Heightened Def Con from 0.00587896 to 0.00587896
Heightened Def Con from 0.00587896 to 0.00587896
Heightened Def Con from 0.00587896 +to 0.00587896
Heightened Def Con from 0.00587897 to 0.00587897
Heightened Def Con from 0.00587897 to 0.00587897
Heightened Def Con from 0.00587897 to 0.00587897
Heightened Def Con from 0.00587897 to 0.00587897
Heightened Def Con from 0.00587897 to 0.00587897
Heightened Def Con from 0.00587897 to 0.00587898
Heightened Def Con from 0.00587901 to 0.00587901
Heightened Def Con from 0.00587901 to 0.00587901
Heightened Def Con from 0.00588748 to 0.00588748
Heightened Def Con from 0.00588748 to 0.00588748
Heightened Def Con from 0.00588762 to 0.00588762
Heightened Def Con from 0.00588762 to 0.00588762
Heightened Def Con from 0.00588762 to 0.00588763
Heightened Def Con from 0.00588763 to 0.00588763
Heightened Def Con from 0.00588763 to 0.00588763
Heightened Def Con from 0.00588763 to 0.00588763
Heightened Def Con from 0.00588763 to 0.00588763
Heightened Def Con from 0.00588763 to 0.00588763
Heightened Def Con from 0.00588763 to 0.00588763
Heightened Def Con from 0.00588765 to 0.00588765
Heightened Def Con from 0.00588765 to 0.00588766
Heightened Def Con from 0.00588766 to 0.00588766
Heightened Def Con from 0.00588766 to 0.00588766
Heightened Def Con from 0.00588766 to 0.00588766
Heightened Def Con from 0.00588803 to 0.00588803
Heightened Def Con from 0.00588804 to 0.00588804
Heightened Def Con from 0.00588805 to 0.00588805
Heightened Def Con from 0.00588809 to 0.00588809
Heightened Def Con from 0.00588809 to 0.00588809
Heightened Def Con from 0.00588809 to 0.00588809
Heightened Def Con from 0.0058881 +to 0.0058881
Heightened Def Con from 0.0058881 to 0.0058881
Heightened Def Con from 0.0058881 to 0.0058881
Heightened Def Con from 0.0058881 to 0.0058881
Heightened Def Con from 0.0058881 to 0.0058881
Heightened Def Con from 0.0058881 to 0.0058881
Heightened Def Con from 0.00589073 to 0.00589073
Heightened Def Con from 0.00589073 to 0.00589074
Heightened Def Con from 0.00589074 to 0.00589074
Heightened Def Con from 0.00589075 to 0.00589075
Heightened Def Con from 0.00589075 to 0.00589075
Heightened Def Con from 0.00589075 to 0.00589075
Heightened Def Con from 0.00589075 to 0.00589075
Heightened Def Con from 0.00589075 to 0.00589076
Heightened Def Con from 0.00589076 to 0.00589076
Heightened Def Con from 0.00589076 to 0.00589076
Heightened Def Con from 0.00589077 to 0.00589077
Heightened Def Con from 0.00589082 to 0.00589082
Heightened Def Con from 0.00589083 to 0.00589083
Heightened Def Con from 0.00589084 to 0.00589084
Heightened Def Con from 0.00589084 to 0.00589084
Heightened Def Con from 0.00589084 to 0.00589084
Heightened Def Con from 0.00589084 to 0.00589084
Heightened Def Con from 0.00589084 to 0.00589084
Heightened Def Con from 0.00589171 to 0.00589171
Heightened Def Con from 0.00589172 to 0.00589172
Heightened Def Con from 0.00589172 to 0.00589172
Heightened Def Con from 0.00589175 to 0.00589175
Heightened Def Con from 0.00589176 to 0.00589176
Heightened Def Con from 0.00589176 to 0.00589176
Heightened Def Con from 0.00589177 to 0.00589177
Heightened Def Con from 0.00589177 to 0.00589177
Heightened Def Con from 0.00589177 +to 0.00589177
Heightened Def Con from 0.00589177 to 0.00589177
Heightened Def Con from 0.00589177 to 0.00589177
Heightened Def Con from 0.00589177 to 0.00589177
Heightened Def Con from 0.00589177 to 0.00589177
Heightened Def Con from 0.00589177 to 0.00589177
Heightened Def Con from 0.00589177 to 0.00589177
Heightened Def Con from 0.00589177 to 0.00589177
Heightened Def Con from 0.00589177 to 0.00589177
Heightened Def Con from 0.00589177 to 0.00589177
Heightened Def Con from 0.00589177 to 0.00589178
Heightened Def Con from 0.00589178 to 0.00589178
Heightened Def Con from 0.00589178 to 0.00589178
Heightened Def Con from 0.00589178 to 0.00589178
Heightened Def Con from 0.00589178 to 0.00589179
Heightened Def Con from 0.00589179 to 0.00589179
Heightened Def Con from 0.00589181 to 0.00589181
Heightened Def Con from 0.00589181 to 0.00589181
Heightened Def Con from 0.00589181 to 0.00589181
Heightened Def Con from 0.00589181 to 0.00589181
Heightened Def Con from 0.00589182 to 0.00589182
Heightened Def Con from 0.00589182 to 0.00589182
Heightened Def Con from 0.00589182 to 0.00589182
Heightened Def Con from 0.00589182 to 0.00589182
Heightened Def Con from 0.00589182 to 0.00589182
Heightened Def Con from 0.00589182 to 0.00589182
Heightened Def Con from 0.00589182 to 0.00589182
Heightened Def Con from 0.00589182 to 0.00589182
Heightened Def Con from 0.00589323 to 0.00589323
Heightened Def Con from 0.00589323 to 0.00589323
Heightened Def Con from 0.00589323 to 0.00589323
Heightened Def Con from 0.00589327 to 0.00589327
Heightened Def Con from 0.00589328 to 0.00589328
Heightened Def Con from 0.00589328 to 0.00589328
Heightened Def Con from 0.00589328 to 0.00589328
Heightened Def Con from 0.00589328 to 0.00589328
Heightened Def Con from 0.00589328 to 0.00589328
Heightened Def Con from 0.00589329 to 0.00589329
Heightened Def Con from 0.0058933 to 0.0058933
Heightened Def Con from 0.0058933 to 0.0058933
Heightened Def Con from 0.0058933 to 0.0058933
Heightened Def Con from 0.0058933 to 0.0058933
Heightened Def Con from 0.00589331 to 0.00589331
Heightened Def Con from 0.00589331 to 0.00589331
Heightened Def Con from 0.00589331 to 0.00589331
Heightened Def Con from 0.00589331 to 0.00589331
Heightened Def Con from 0.00589332 to 0.00589332
Heightened Def Con from 0.00589332 to 0.00589332
Heightened Def Con from 0.00589332 to 0.00589332
Heightened Def Con from 0.00589333 to 0.00589333
Heightened Def Con from 0.00589333 to 0.00589333
Heightened Def Con from 0.00589333 +to 0.00589333
Heightened Def Con from 0.00589334 to 0.00589334
Heightened Def Con from 0.00589334 to 0.00589334
Heightened Def Con from 0.00589334 to 0.00589334
Heightened Def Con from 0.00589334 to 0.00589334
Heightened Def Con from 0.00589334 +to 0.00589335
Heightened Def Con from 0.00589337 to 0.00589337
Heightened Def Con from 0.00589337 to 0.00589337
Heightened Def Con from 0.00589403 to 0.00589403
Heightened Def Con from 0.00589411 to 0.00589411
Heightened Def Con from 0.00589411 to 0.00589411
Heightened Def Con from 0.00589412 to 0.00589412
Heightened Def Con from 0.00589412 to 0.00589412
Heightened Def Con from 0.00589725 to 0.00589725
Heightened Def Con from 0.00589726 to 0.00589726
Heightened Def Con from 0.00589726 to 0.00589726
Heightened Def Con from 0.00589726 to 0.00589726
Heightened Def Con from 0.00589727 to 0.00589727
Heightened Def Con from 0.00589727 to 0.00589727
Heightened Def Con from 0.00589727 to 0.00589727
Heightened Def Con from 0.00589727 to 0.00589727
Heightened Def Con from 0.00589727 to 0.00589727
Heightened Def Con from 0.00589729 to 0.00589729
Heightened Def Con from 0.00589732 to 0.00589732
Heightened Def Con from 0.00589734 to 0.00589734
Heightened Def Con from 0.00589735 to 0.00589735
Heightened Def Con from 0.00589735 to 0.00589735
Heightened Def Con from 0.00589735 to 0.00589735
Heightened Def Con from 0.00589735 to 0.00589735
Heightened Def Con from 0.00589735 to 0.00589735
Heightened Def Con from 0.00589738 to 0.00589738
Heightened Def Con from 0.00589738 to 0.00589738
Heightened Def Con from 0.00589738 to 0.00589738
Heightened Def Con from 0.00589738 to 0.00589738
Heightened Def Con from 0.00589738 to 0.00589738
Heightened Def Con from 0.00589738 to 0.00589738
Heightened Def Con from 0.00589738 to 0.00589738
Heightened Def Con from 0.00589738 to 0.00589738
Heightened Def Con from 0.00589738 to 0.00589738
Heightened Def Con from 0.00589738 to 0.00589738
Heightened Def Con from 0.00589738 to 0.00589738
Heightened Def Con from 0.0058974 to 0.0058974
Heightened Def Con from 0.0058974 to 0.0058974
Heightened Def Con from 0.00589741 to 0.00589741
Heightened Def Con from 0.00589741 to 0.00589741
Heightened Def Con from 0.00589741 to 0.00589741
Heightened Def Con from 0.00589744 to 0.00589744
Heightened Def Con from 0.00589744 to 0.00589744
Heightened Def Con from 0.00589744 to 0.00589744
Heightened Def Con from 0.00589744 to 0.00589744
Heightened Def Con from 0.00589744 to 0.00589744
Heightened Def Con from 0.00589744 to 0.00589744
Heightened Def Con from 0.00589745 to 0.00589745
Heightened Def Con from 0.00589747 to 0.00589747
Heightened Def Con from 0.00589747 to 0.00589747
Heightened Def Con from 0.00589747 to 0.00589747
Heightened Def Con from 0.00589747 to 0.00589747
Heightened Def Con from 0.00589747 to 0.00589747
Heightened Def Con from 0.00589747 to 0.00589747
Heightened Def Con from 0.00589748 to 0.00589748
Heightened Def Con from 0.00589748 to 0.00589748
Heightened Def Con from 0.00589755 to 0.00589755
Heightened Def Con from 0.00589756 to 0.00589756
Heightened Def Con from 0.00589756 to 0.00589756
Heightened Def Con from 0.00589756 to 0.00589756
Heightened Def Con from 0.00589756 to 0.00589756
Heightened Def Con from 0.00589809 to 0.00589809
Heightened Def Con from 0.00589809 to 0.00589809
Heightened Def Con from 0.00589809 to 0.00589809
Heightened Def Con from 0.00589816 +to 0.00589816
Heightened Def Con from 0.00589816 to 0.00589816
Heightened Def Con from 0.00589816 to 0.00589816
Heightened Def Con from 0.00589818 to 0.00589818
Heightened Def Con from 0.00589819 to 0.00589819
Heightened Def Con from 0.00589819 to 0.00589819
Heightened Def Con from 0.00589819 to 0.00589819
Heightened Def Con from 0.00589834 to 0.00589834
Heightened Def Con from 0.00589834 to 0.00589834
Heightened Def Con from 0.00589834 to 0.00589834
Heightened Def Con from 0.00589834 to 0.00589835
Heightened Def Con from 0.00589835 to 0.00589835
Heightened Def Con from 0.00589836 +to 0.00589836
Heightened Def Con from 0.00589836 +to 0.00589837
Heightened Def Con from 0.00589838 to 0.00589838
Heightened Def Con from 0.00589838 to 0.00589838
Heightened Def Con from 0.00589838 to 0.00589838
Heightened Def Con from 0.00589838 to 0.00589838
Heightened Def Con from 0.00589838 to 0.00589839
Heightened Def Con from 0.0058984 to 0.0058984
Heightened Def Con from 0.0058984 to 0.0058984
Heightened Def Con from 0.0058984 to 0.0058984
Heightened Def Con from 0.0058984 to 0.0058984
Heightened Def Con from 0.00589843 to 0.00589843
Heightened Def Con from 0.00589843 to 0.00589843
Heightened Def Con from 0.00589843 to 0.00589843
Heightened Def Con from 0.00589847 to 0.00589847
Heightened Def Con from 0.00589848 to 0.00589848
Heightened Def Con from 0.00589848 +to 0.00589848
Heightened Def Con from 0.00589848 to 0.00589848
Heightened Def Con from 0.0058985 to 0.0058985
Heightened Def Con from 0.0058985 to 0.0058985
Heightened Def Con from 0.0058985 to 0.0058985
Heightened Def Con from 0.0058985 to 0.0058985
Heightened Def Con from 0.0058985 to 0.0058985
Heightened Def Con from 0.0058985 to 0.0058985
Heightened Def Con from 0.0058985 to 0.00589851
Heightened Def Con from 0.00589851 to 0.00589851
Heightened Def Con from 0.00589851 to 0.00589851
Heightened Def Con from 0.00589851 to 0.00589851
Heightened Def Con from 0.00589851 to 0.00589852
Heightened Def Con from 0.00589857 to 0.00589857
Heightened Def Con from 0.00589857 to 0.00589857
Heightened Def Con from 0.00589857 to 0.00589857
Heightened Def Con from 0.00589857 to 0.00589857
Heightened Def Con from 0.00589857 to 0.00589857
Heightened Def Con from 0.00589857 to 0.00589857
Heightened Def Con from 0.00589857 to 0.00589857
Heightened Def Con from 0.00589857 to 0.00589857
Heightened Def Con from 0.00589858 to 0.00589859
Heightened Def Con from 0.00589859 to 0.00589859
Heightened Def Con from 0.00589859 to 0.00589859
Heightened Def Con from 0.0058986 to 0.0058986
Heightened Def Con from 0.0058986 to 0.0058986
Heightened Def Con from 0.00589861 to 0.00589861
Heightened Def Con from 0.00589861 to 0.00589861
Heightened Def Con from 0.00589861 to 0.00589861
Heightened Def Con from 0.00589861 to 0.00589862
Heightened Def Con from 0.00589862 to 0.00589862
Heightened Def Con from 0.00589862 to 0.00589862
Heightened Def Con from 0.00589862 to 0.00589862
Heightened Def Con from 0.00589862 to 0.00589862
Heightened Def Con from 0.00589862 to 0.00589862
Heightened Def Con from 0.00589862 to 0.00589862
Heightened Def Con from 0.00589862 to 0.00589862
Heightened Def Con from 0.00589862 to 0.00589862
Heightened Def Con from 0.00589862 to 0.00589863
Heightened Def Con from 0.00589863 to 0.00589863
Heightened Def Con from 0.00589864 to 0.00589864
Heightened Def Con from 0.00589864 +to 0.00589864
Heightened Def Con from 0.00589866 to 0.00589866
Heightened Def Con from 0.00589866 to 0.00589866
Heightened Def Con from 0.00589866 to 0.00589867
Heightened Def Con from 0.00589867 to 0.00589867
Heightened Def Con from 0.00589867 to 0.00589867
Heightened Def Con from 0.00589867 to 0.00589867
Heightened Def Con from 0.00589867 to 0.00589867
Heightened Def Con from 0.00589869 to 0.00589869
Heightened Def Con from 0.00590038 to 0.00590038
Heightened Def Con from 0.00590038 to 0.00590038
Heightened Def Con from 0.0059004 to 0.0059004
Heightened Def Con from 0.00590043 to 0.00590043
Heightened Def Con from 0.00590043 to 0.00590043
Heightened Def Con from 0.00590044 to 0.00590044
Heightened Def Con from 0.00590044 to 0.00590044
Heightened Def Con from 0.00590048 to 0.00590048
Heightened Def Con from 0.00590049 to 0.00590049
Heightened Def Con from 0.00590049 to 0.00590049
Heightened Def Con from 0.00590049 +to 0.00590049
Heightened Def Con from 0.00590049 +to 0.00590049
Heightened Def Con from 0.00590049 to 0.00590049
Heightened Def Con from 0.00590051 to 0.00590051
Heightened Def Con from 0.00590051 to 0.00590051
Heightened Def Con from 0.00590051 to 0.00590051
Heightened Def Con from 0.00590052 to 0.00590052
Heightened Def Con from 0.00590052 to 0.00590052
Heightened Def Con from 0.00590052 +to 0.00590052
Heightened Def Con from 0.00590052 to 0.00590052
Heightened Def Con from 0.00590053 to 0.00590053
Heightened Def Con from 0.00590406 to 0.00590406
Heightened Def Con from 0.00590407 to 0.00590407
Heightened Def Con from 0.00590408 to 0.00590408
Heightened Def Con from 0.00590408 to 0.00590408
Heightened Def Con from 0.00590408 to 0.00590409
Heightened Def Con from 0.00590409 to 0.00590409
Heightened Def Con from 0.00590409 to 0.00590409
Heightened Def Con from 0.00590409 to 0.00590409
Heightened Def Con from 0.00590409 to 0.00590409
Heightened Def Con from 0.0059041 to 0.0059041
Heightened Def Con from 0.00590411 to 0.00590411
Heightened Def Con from 0.00590411 to 0.00590411
Heightened Def Con from 0.00590411 to 0.00590411
Heightened Def Con from 0.00590411 to 0.00590411
Heightened Def Con from 0.00590411 to 0.00590411
Heightened Def Con from 0.00590411 to 0.00590412
Heightened Def Con from 0.00590412 to 0.00590412
Heightened Def Con from 0.00590412 to 0.00590412
Heightened Def Con from 0.00590419 to 0.00590419
Heightened Def Con from 0.00590419 to 0.00590419
Heightened Def Con from 0.00590419 to 0.00590419
Heightened Def Con from 0.00590419 to 0.00590419
Heightened Def Con from 0.00590419 to 0.00590419
Heightened Def Con from 0.00590419 to 0.0059042
Heightened Def Con from 0.00590433 to 0.00590433
Heightened Def Con from 0.00590433 to 0.00590433
Heightened Def Con from 0.00590434 to 0.00590434
Heightened Def Con from 0.00590434 to 0.00590434
Heightened Def Con from 0.00590434 to 0.00590434
Heightened Def Con from 0.00590435 to 0.00590435
Heightened Def Con from 0.00590435 to 0.00590435
Heightened Def Con from 0.00590435 to 0.00590435
Heightened Def Con from 0.00590436 to 0.00590436
Heightened Def Con from 0.00590443 to 0.00590443
Heightened Def Con from 0.00590452 to 0.00590452
Heightened Def Con from 0.00590452 to 0.00590452
Heightened Def Con from 0.00590452 to 0.00590452
Heightened Def Con from 0.00590452 to 0.00590452
Heightened Def Con from 0.00590452 to 0.00590452
Heightened Def Con from 0.00590452 to 0.00590452
Heightened Def Con from 0.00590452 to 0.00590452
Heightened Def Con from 0.00590452 to 0.00590452
Heightened Def Con from 0.00590452 to 0.00590452
Heightened Def Con from 0.00590453 +to 0.00590453
Heightened Def Con from 0.00590456 to 0.00590456
Heightened Def Con from 0.00590456 +to 0.00590456
Heightened Def Con from 0.00590456 to 0.00590457
Heightened Def Con from 0.00590457 to 0.00590457
Heightened Def Con from 0.00590457 to 0.00590457
Heightened Def Con from 0.00590457 to 0.00590457
Heightened Def Con from 0.00590457 to 0.00590457
Heightened Def Con from 0.00590457 to 0.00590457
Heightened Def Con from 0.00590458 to 0.00590458
Heightened Def Con from 0.00590458 to 0.00590458
Heightened Def Con from 0.00590458 to 0.00590458
Heightened Def Con from 0.00590463 to 0.00590463
Heightened Def Con from 0.00590479 to 0.00590479
Heightened Def Con from 0.00590479 to 0.00590479
Heightened Def Con from 0.00590479 to 0.00590479
Heightened Def Con from 0.00590479 to 0.00590479
Heightened Def Con from 0.00590479 to 0.00590479
Heightened Def Con from 0.00590479 to 0.00590479
Heightened Def Con from 0.00590479 to 0.00590479
Heightened Def Con from 0.0059048 to 0.0059048
Heightened Def Con from 0.0059048 to 0.0059048
Heightened Def Con from 0.0059048 to 0.00590481
Heightened Def Con from 0.00590481 to 0.00590481
Heightened Def Con from 0.00590481 to 0.00590481
Heightened Def Con from 0.00590481 to 0.00590481
Heightened Def Con from 0.00590482 to 0.00590482
Heightened Def Con from 0.00590482 +to 0.00590482
Heightened Def Con from 0.00590482 to 0.00590482
Heightened Def Con from 0.00590482 to 0.00590483
Heightened Def Con from 0.00590484 to 0.00590484
Heightened Def Con from 0.00590485 to 0.00590485
Heightened Def Con from 0.00590485 to 0.00590485
Heightened Def Con from 0.00590485 to 0.00590485
Heightened Def Con from 0.00590485 to 0.00590485
Heightened Def Con from 0.00591019 to 0.00591019
Heightened Def Con from 0.00591019 to 0.00591019
Heightened Def Con from 0.00591019 to 0.00591019
Heightened Def Con from 0.00591019 to 0.00591019
Heightened Def Con from 0.00600001 to 0.00600001
Heightened Def Con from 0.00600001 to 0.00600001
Heightened Def Con from 0.00608622 to 0.00608622
Heightened Def Con from 0.00608622 to 0.00608622
Heightened Def Con from 0.00609307 to 0.00609307
Heightened Def Con from 0.00609308 to 0.00609308
Heightened Def Con from 0.00609308 to 0.00609308
Heightened Def Con from 0.0060934 to 0.0060934
Heightened Def Con from 0.0060934 to 0.0060934
Heightened Def Con from 0.0060934 to 0.00609341
Heightened Def Con from 0.00609409 to 0.00609409
Heightened Def Con from 0.00609409 to 0.00609409
Heightened Def Con from 0.00609409 to 0.00609409
Heightened Def Con from 0.00609409 to 0.00609409
Heightened Def Con from 0.00609409 to 0.00609409
Heightened Def Con from 0.00609409 to 0.0060941
Heightened Def Con from 0.0060941 to 0.0060941
Heightened Def Con from 0.00609411 to 0.00609411
Heightened Def Con from 0.00609411 to 0.00609412
Heightened Def Con from 0.00609417 to 0.00609418
Heightened Def Con from 0.00609418 to 0.00609418
Heightened Def Con from 0.00609418 to 0.00609418
Heightened Def Con from 0.0060942 to 0.0060942
Heightened Def Con from 0.0060942 to 0.0060942
Heightened Def Con from 0.0060942 to 0.0060942
Heightened Def Con from 0.0060942 to 0.0060942
Heightened Def Con from 0.00609422 to 0.00609422
Heightened Def Con from 0.00609422 to 0.00609422
Heightened Def Con from 0.00609422 to 0.00609422
Heightened Def Con from 0.00609422 to 0.00609423
Heightened Def Con from 0.00609423 to 0.00609423
Heightened Def Con from 0.00609423 to 0.00609423
Heightened Def Con from 0.00609423 to 0.00609423
Heightened Def Con from 0.00609423 to 0.00609423
Heightened Def Con from 0.00609423 to 0.00609423
Heightened Def Con from 0.00609427 to 0.00609427
Heightened Def Con from 0.00609427 to 0.00609427
Heightened Def Con from 0.00609427 to 0.00609427
Heightened Def Con from 0.00609427 to 0.00609427
Heightened Def Con from 0.00609427 to 0.00609427
Heightened Def Con from 0.00609428 to 0.00609428
Heightened Def Con from 0.00609428 to 0.00609428
Heightened Def Con from 0.00609429 to 0.00609429
Heightened Def Con from 0.00609429 to 0.0060943
Heightened Def Con from 0.0060943 to 0.0060943
Heightened Def Con from 0.0060943 to 0.0060943
Heightened Def Con from 0.0060943 to 0.0060943
Heightened Def Con from 0.0060943 to 0.0060943
Heightened Def Con from 0.0060943 to 0.0060943
Heightened Def Con from 0.00609431 to 0.00609431
Heightened Def Con from 0.00609431 to 0.00609431
Heightened Def Con from 0.00609431 to 0.00609431
Heightened Def Con from 0.00609431 to 0.00609431
Heightened Def Con from 0.00609432 to 0.00609432
Heightened Def Con from 0.00609432 to 0.00609432
Heightened Def Con from 0.00609432 to 0.00609432
Heightened Def Con from 0.00609432 to 0.00609433
Heightened Def Con from 0.00609433 to 0.00609433
Heightened Def Con from 0.00609433 to 0.00609433
Heightened Def Con from 0.00609433 to 0.00609433
Heightened Def Con from 0.00609433 to 0.00609433
Heightened Def Con from 0.00609433 to 0.00609433
Heightened Def Con from 0.00609433 to 0.00609434
Heightened Def Con from 0.00609434 to 0.00609434
Heightened Def Con from 0.00609434 to 0.00609434
Heightened Def Con from 0.00609434 to 0.00609434
Heightened Def Con from 0.00609434 to 0.00609434
Heightened Def Con from 0.00609436 to 0.00609436
Heightened Def Con from 0.00609436 to 0.00609436
Heightened Def Con from 0.00609436 to 0.00609437
Heightened Def Con from 0.00609437 to 0.00609437
Heightened Def Con from 0.00609437 to 0.00609437
Heightened Def Con from 0.00609437 to 0.00609437
Heightened Def Con from 0.00609437 to 0.00609437
Heightened Def Con from 0.00609438 to 0.00609438
Heightened Def Con from 0.00609439 to 0.0060944
Heightened Def Con from 0.0060944 to 0.0060944
Heightened Def Con from 0.0060944 to 0.0060944
Heightened Def Con from 0.0060944 to 0.0060944
Heightened Def Con from 0.00609884 to 0.00609884
Heightened Def Con from 0.00637566 to 0.00637566
Heightened Def Con from 0.00637566 to 0.00637566
Heightened Def Con from 0.00638548 to 0.00638548
Heightened Def Con from 0.00638548 to 0.00638548
Heightened Def Con from 0.00638548 to 0.00638548
Heightened Def Con from 0.00638548 to 0.00638548
Heightened Def Con from 0.00638548 to 0.00638548
Heightened Def Con from 0.00638557 to 0.00638557
Heightened Def Con from 0.00638557 to 0.00638557
Heightened Def Con from 0.00638557 to 0.00638557
Heightened Def Con from 0.00638557 to 0.00638557
Heightened Def Con from 0.00638557 to 0.00638557
Heightened Def Con from 0.00638557 to 0.00638557
Heightened Def Con from 0.00638557 to 0.00638557
Heightened Def Con from 0.00638558 to 0.00638558
Heightened Def Con from 0.00638561 to 0.00638561
Heightened Def Con from 0.00638564 to 0.00638565
Heightened Def Con from 0.00638565 to 0.00638565
Heightened Def Con from 0.00638566 to 0.00638566
Heightened Def Con from 0.00638566 to 0.00638566
Heightened Def Con from 0.00638566 to 0.00638566
Heightened Def Con from 0.00638569 to 0.00638569
Heightened Def Con from 0.00638569 to 0.00638569
Heightened Def Con from 0.0063859 to 0.0063859
Heightened Def Con from 0.0063859 to 0.0063859
Heightened Def Con from 0.0063859 to 0.0063859
Heightened Def Con from 0.0063859 to 0.0063859
Heightened Def Con from 0.0063859 to 0.0063859
Heightened Def Con from 0.00638663 to 0.00638664
Heightened Def Con from 0.00638664 to 0.00638664
Heightened Def Con from 0.00638664 to 0.00638664
Heightened Def Con from 0.00638664 to 0.00638664
Heightened Def Con from 0.00638664 to 0.00638664
Heightened Def Con from 0.00638664 to 0.00638664
Heightened Def Con from 0.00638664 to 0.00638664
Heightened Def Con from 0.00638665 to 0.00638665
Heightened Def Con from 0.00638665 to 0.00638665
Heightened Def Con from 0.00638665 to 0.00638665
Heightened Def Con from 0.00638667 to 0.00638667
Heightened Def Con from 0.00638667 to 0.00638667
Heightened Def Con from 0.00638667 to 0.00638667
Heightened Def Con from 0.00638667 to 0.00638667
Heightened Def Con from 0.00638668 to 0.00638668
Heightened Def Con from 0.00638668 to 0.00638668
Heightened Def Con from 0.00638668 to 0.00638668
Heightened Def Con from 0.00638673 to 0.00638673
Heightened Def Con from 0.00638673 to 0.00638673
Heightened Def Con from 0.00638673 to 0.00638673
Heightened Def Con from 0.00638674 to 0.00638674
Heightened Def Con from 0.00638675 to 0.00638675
Heightened Def Con from 0.00638675 to 0.00638675
Heightened Def Con from 0.00638675 to 0.00638675
Heightened Def Con from 0.00638675 to 0.00638675
Heightened Def Con from 0.00638675 to 0.00638675
Heightened Def Con from 0.00638675 to 0.00638675
Heightened Def Con from 0.00638675 to 0.00638675
Heightened Def Con from 0.00638675 to 0.00638676
Heightened Def Con from 0.0063868 to 0.0063868
Heightened Def Con from 0.0063868 to 0.0063868
Heightened Def Con from 0.00638681 to 0.00638681
Heightened Def Con from 0.00638707 to 0.00638707
Heightened Def Con from 0.00638709 to 0.00638709
Heightened Def Con from 0.00638709 to 0.00638709
Heightened Def Con from 0.00638709 to 0.0063871
Heightened Def Con from 0.0063871 to 0.0063871
Heightened Def Con from 0.0063871 to 0.0063871
Heightened Def Con from 0.00638711 to 0.00638711
Heightened Def Con from 0.00638712 to 0.00638712
Heightened Def Con from 0.00638712 to 0.00638712
Heightened Def Con from 0.00638712 to 0.00638712
Heightened Def Con from 0.00638712 to 0.00638712
Heightened Def Con from 0.00638712 to 0.00638712
Heightened Def Con from 0.00638712 to 0.00638712
Heightened Def Con from 0.00638712 to 0.00638712
Heightened Def Con from 0.00638713 to 0.00638713
Heightened Def Con from 0.00638713 to 0.00638713
Heightened Def Con from 0.00638713 to 0.00638713
Heightened Def Con from 0.00638713 +to 0.00638713
Heightened Def Con from 0.00638713 to 0.00638714
Heightened Def Con from 0.00638714 to 0.00638714
Heightened Def Con from 0.00638714 to 0.00638714
Heightened Def Con from 0.00638714 to 0.00638714
Heightened Def Con from 0.00638716 to 0.00638717
Heightened Def Con from 0.00638717 to 0.00638717
[...]
Heightened Def Con from 0.075356 to 0.075356
Heightened Def Con from 0.075356 to 0.075356
Heightened Def Con from 0.075356 to 0.075356
Heightened Def Con from 0.075356 to 0.075356
Heightened Def Con from 0.075356 +to 0.075356
Heightened Def Con from 0.075356 to 0.075356
Heightened Def Con from 0.075356 to 0.075356
Heightened Def Con from 0.075356 to 0.075356
Heightened Def Con from 0.075356 to 0.075356
Heightened Def Con from 0.075356 to 0.075356
Heightened Def Con from 0.0753566 to 0.0753566
Heightened Def Con from 0.0753566 to 0.0753566
Heightened Def Con from 0.0753566 to 0.0753566
Heightened Def Con from 0.0753566 to 0.0753566
Heightened Def Con from 0.0753566 to 0.0753566
Heightened Def Con from 0.0753566 to 0.0753566
Heightened Def Con from 0.0753566 to 0.0753566
Heightened Def Con from 0.0753567 to 0.0753567
Heightened Def Con from 0.0753567 to 0.0753567
Heightened Def Con from 0.0753567 to 0.0753567
Heightened Def Con from 0.0753567 to 0.0753567
Heightened Def Con from 0.0753567 to 0.0753567
Heightened Def Con from 0.0753568 to 0.0753568
Heightened Def Con from 0.0753572 to 0.0753572
Heightened Def Con from 0.0753572 to 0.0753572
Heightened Def Con from 0.0753572 to 0.0753572
Heightened Def Con from 0.0753572 to 0.0753572
Heightened Def Con from 0.0753572 to 0.0753572
Heightened Def Con from 0.0753572 to 0.0753572
Heightened Def Con from 0.0753572 to 0.0753572
Heightened Def Con from 0.0753572 to 0.0753572
Heightened Def Con from 0.0753572 to 0.0753572
Heightened Def Con from 0.0753572 to 0.0753572
Heightened Def Con from 0.0753572 to 0.0753572
Heightened Def Con from 0.0753572 to 0.0753572
Heightened Def Con from 0.0753572 to 0.0753572
Heightened Def Con from 0.0753583 to 0.0753583
Heightened Def Con from 0.0753583 to 0.0753583
Heightened Def Con from 0.0753583 to 0.0753583
Heightened Def Con from 0.0753583 to 0.0753583
Heightened Def Con from 0.0753583 to 0.0753583
Heightened Def Con from 0.0753583 to 0.0753584
Heightened Def Con from 0.0753597 to 0.0753597
Heightened Def Con from 0.0753597 to 0.0753597
Heightened Def Con from 0.0753597 to 0.0753597
Heightened Def Con from 0.0753599 to 0.0753599
Heightened Def Con from 0.0753599 to 0.0753599
Heightened Def Con from 0.0753599 to 0.0753599
Heightened Def Con from 0.0753599 to 0.0753599
Heightened Def Con from 0.0753599 to 0.0753599
Heightened Def Con from 0.0753601 to 0.0753601
Heightened Def Con from 0.0753601 to 0.0753601
Heightened Def Con from 0.0753601 to 0.0753601
Heightened Def Con from 0.0753601 to 0.0753601
Heightened Def Con from 0.0753601 to 0.0753601
Heightened Def Con from 0.0753601 to 0.0753601
Heightened Def Con from 0.0753601 to 0.0753601
Heightened Def Con from 0.0753601 to 0.0753601
Heightened Def Con from 0.0753601 to 0.0753601
Heightened Def Con from 0.0753601 to 0.0753601
Heightened Def Con from 0.0753602 to 0.0753602
Heightened Def Con from 0.0753602 to 0.0753602
Heightened Def Con from 0.0753605 to 0.0753605
Heightened Def Con from 0.0753605 to 0.0753605
Heightened Def Con from 0.0753605 to 0.0753605
Heightened Def Con from 0.0753605 to 0.0753605
Heightened Def Con from 0.0753605 to 0.0753605
Heightened Def Con from 0.0753605 to 0.0753605
Heightened Def Con from 0.0753605 to 0.0753605
Heightened Def Con from 0.0753605 to 0.0753605
Heightened Def Con from 0.0753606 to 0.0753606
Heightened Def Con from 0.0753606 to 0.0753606
Heightened Def Con from 0.0753606 to 0.0753606
Heightened Def Con from 0.0753607 to 0.0753607
Heightened Def Con from 0.0753607 to 0.0753607
Heightened Def Con from 0.0753607 to 0.0753607
Heightened Def Con from 0.0753607 to 0.0753607
Heightened Def Con from 0.0753614 to 0.0753614
Heightened Def Con from 0.0753614 to 0.0753614
Heightened Def Con from 0.0753615 to 0.0753615
Heightened Def Con from 0.0753615 to 0.0753615
Heightened Def Con from 0.0753615 to 0.0753615
Heightened Def Con from 0.0753615 to 0.0753615
Heightened Def Con from 0.0753615 to 0.0753615
Heightened Def Con from 0.0753615 to 0.0753616
Heightened Def Con from 0.0753616 +to 0.0753616
Heightened Def Con from 0.0753616 to 0.0753616
Heightened Def Con from 0.0753616 to 0.0753616
Heightened Def Con from 0.0753616 to 0.0753616
Heightened Def Con from 0.0753616 to 0.0753616
Heightened Def Con from 0.0753616 to 0.0753616
Heightened Def Con from 0.0753616 to 0.0753616
Heightened Def Con from 0.0753616 to 0.0753616
Heightened Def Con from 0.0753616 to 0.0753616
Heightened Def Con from 0.0753616 to 0.0753616
Heightened Def Con from 0.0753616 to 0.0753616
Heightened Def Con from 0.0753616 to 0.0753616
Heightened Def Con from 0.0753616 to 0.0753616
Heightened Def Con from 0.0753617 to 0.0753617
Heightened Def Con from 0.0756012 to 0.0756012
Heightened Def Con from 0.0756012 to 0.0756012
Heightened Def Con from 0.0756018 to 0.0756018
Heightened Def Con from 0.0756018 to 0.0756018
Heightened Def Con from 0.0756018 to 0.0756018
Heightened Def Con from 0.0756018 to 0.0756018
Heightened Def Con from 0.0756021 to 0.0756021
Heightened Def Con from 0.0756021 to 0.0756021
Heightened Def Con from 0.0756021 to 0.0756021
Heightened Def Con from 0.0756021 to 0.0756021
Heightened Def Con from 0.0756021 to 0.0756021
Heightened Def Con from 0.0756021 to 0.0756021
Heightened Def Con from 0.0756044 to 0.0756044
Heightened Def Con from 0.0756044 to 0.0756044
Heightened Def Con from 0.0756044 to 0.0756044
Heightened Def Con from 0.0756044 to 0.0756044
Heightened Def Con from 0.0756053 to 0.0756053
Heightened Def Con from 0.0756054 to 0.0756054
Heightened Def Con from 0.0756056 to 0.0756056
Heightened Def Con from 0.0756056 to 0.0756056
Heightened Def Con from 0.0756057 to 0.0756057
Heightened Def Con from 0.0756061 to 0.0756061
Heightened Def Con from 0.0756061 to 0.0756061
Heightened Def Con from 0.0756062 to 0.0756062
Heightened Def Con from 0.0756062 to 0.0756062
Heightened Def Con from 0.0756063 to 0.0756063
Heightened Def Con from 0.0756063 to 0.0756063
Heightened Def Con from 0.0756063 to 0.0756063
Heightened Def Con from 0.0756119 to 0.0756119
Heightened Def Con from 0.0756119 to 0.0756119
Heightened Def Con from 0.0756119 to 0.0756119
Heightened Def Con from 0.0756131 to 0.0756131
Heightened Def Con from 0.0756131 to 0.0756132
Heightened Def Con from 0.0756132 to 0.0756132
Heightened Def Con from 0.0756132 to 0.0756132
Heightened Def Con from 0.0756132 to 0.0756132
Heightened Def Con from 0.0756132 to 0.0756132
Heightened Def Con from 0.0756132 to 0.0756132
Heightened Def Con from 0.0756132 to 0.0756132
Heightened Def Con from 0.0756132 to 0.0756132
Heightened Def Con from 0.0756132 to 0.0756132
Heightened Def Con from 0.0756132 to 0.0756132
Heightened Def Con from 0.0756132 to 0.0756132
Heightened Def Con from 0.0756132 to 0.0756132
Heightened Def Con from 0.0756132 to 0.0756132
Heightened Def Con from 0.0756132 to 0.0756132
Heightened Def Con from 0.0756133 to 0.0756133
Heightened Def Con from 0.0756133 to 0.0756133
Heightened Def Con from 0.0756133 to 0.0756133
Heightened Def Con from 0.0756133 to 0.0756133
Heightened Def Con from 0.0756134 to 0.0756134
Heightened Def Con from 0.0756134 to 0.0756134
Heightened Def Con from 0.0756134 to 0.0756134
Heightened Def Con from 0.0756134 to 0.0756134
Heightened Def Con from 0.0756134 to 0.0756134
Heightened Def Con from 0.0756134 to 0.0756134
Heightened Def Con from 0.0756134 to 0.0756134
Heightened Def Con from 0.0756134 to 0.0756134
Heightened Def Con from 0.0756135 to 0.0756135
Heightened Def Con from 0.0756135 to 0.0756135
Heightened Def Con from 0.0756135 to 0.0756135
Heightened Def Con from 0.0756135 to 0.0756136
Heightened Def Con from 0.0756136 to 0.0756136
Heightened Def Con from 0.0756136 to 0.0756136
Heightened Def Con from 0.0756136 to 0.0756136
Heightened Def Con from 0.0756136 to 0.0756136
Heightened Def Con from 0.0756136 to 0.0756136
Heightened Def Con from 0.0756136 to 0.0756136
Heightened Def Con from 0.0756137 to 0.0756137
Heightened Def Con from 0.0756137 to 0.0756137
Heightened Def Con from 0.0756137 to 0.0756137
Heightened Def Con from 0.0756137 to 0.0756137
Heightened Def Con from 0.0756138 to 0.0756138
Heightened Def Con from 0.0756139 to 0.0756139
Heightened Def Con from 0.0756141 to 0.0756141
Heightened Def Con from 0.0756141 to 0.0756141
Heightened Def Con from 0.0756141 to 0.0756141
Heightened Def Con from 0.0756141 to 0.0756141
Heightened Def Con from 0.0756141 to 0.0756141
Heightened Def Con from 0.0756142 to 0.0756142
Heightened Def Con from 0.0756142 to 0.0756142
Heightened Def Con from 0.0756206 to 0.0756206
Heightened Def Con from 0.0756206 to 0.0756206
Heightened Def Con from 0.0756206 to 0.0756206
Heightened Def Con from 0.0756207 to 0.0756207
Heightened Def Con from 0.0756207 to 0.0756207
Heightened Def Con from 0.0756207 to 0.0756207
Heightened Def Con from 0.0756207 to 0.0756207
Heightened Def Con from 0.0756207 to 0.0756207
Heightened Def Con from 0.0756207 to 0.0756207
Heightened Def Con from 0.0756207 to 0.0756207
Heightened Def Con from 0.0756207 to 0.0756207
Heightened Def Con from 0.0756207 to 0.0756207
Heightened Def Con from 0.0756207 to 0.0756207
Heightened Def Con from 0.0756207 to 0.0756207
Heightened Def Con from 0.0756207 to 0.0756207
Heightened Def Con from 0.0756207 to 0.0756207
Heightened Def Con from 0.0756207 to 0.0756207
Heightened Def Con from 0.0756207 to 0.0756207
Heightened Def Con from 0.0756207 to 0.0756207
Heightened Def Con from 0.0756208 to 0.0756208
Heightened Def Con from 0.0756208 to 0.0756208
Heightened Def Con from 0.0756208 to 0.0756208
Heightened Def Con from 0.0756208 to 0.0756208
Heightened Def Con from 0.0756208 to 0.0756208
Heightened Def Con from 0.0756208 to 0.0756209
Heightened Def Con from 0.075621 to 0.075621
Heightened Def Con from 0.075621 to 0.075621
Heightened Def Con from 0.075621 to 0.075621
Heightened Def Con from 0.0756215 to 0.0756215
Heightened Def Con from 0.0756215 to 0.0756215
Heightened Def Con from 0.0756215 to 0.0756215
Heightened Def Con from 0.0756215 to 0.0756215
Heightened Def Con from 0.0756216 to 0.0756216
Heightened Def Con from 0.0756216 to 0.0756216
Heightened Def Con from 0.0756216 to 0.0756216
Heightened Def Con from 0.0756224 to 0.0756224
Heightened Def Con from 0.0756224 to 0.0756224
Heightened Def Con from 0.0756224 to 0.0756224
Heightened Def Con from 0.0756228 to 0.0756228
Heightened Def Con from 0.0756228 to 0.0756228
Heightened Def Con from 0.0756228 to 0.0756228
Heightened Def Con from 0.0756228 to 0.0756228
Heightened Def Con from 0.0756228 to 0.0756228
Heightened Def Con from 0.0756228 to 0.0756228
Heightened Def Con from 0.0756228 to 0.0756228
Heightened Def Con from 0.0756228 to 0.0756228
Heightened Def Con from 0.0756228 to 0.0756228
Heightened Def Con from 0.0756228 to 0.0756228
Heightened Def Con from 0.0756228 to 0.0756229
Heightened Def Con from 0.0756229 to 0.0756229
Heightened Def Con from 0.0756229 to 0.0756229
Heightened Def Con from 0.0756441 to 0.0756441
Heightened Def Con from 0.0756497 to 0.0756497
Heightened Def Con from 0.0756503 to 0.0756503
Heightened Def Con from 0.0756507 to 0.0756507
Heightened Def Con from 0.0756507 to 0.0756507
Heightened Def Con from 0.0756507 to 0.0756507
Heightened Def Con from 0.0756508 to 0.0756508
Heightened Def Con from 0.0756509 to 0.0756509
Heightened Def Con from 0.0756786 to 0.0756786
Heightened Def Con from 0.0756786 to 0.0756786
Heightened Def Con from 0.0756786 to 0.0756786
Heightened Def Con from 0.0756787 to 0.0756787
Heightened Def Con from 0.0756787 to 0.0756787
Heightened Def Con from 0.0756787 to 0.0756787
Heightened Def Con from 0.0756787 to 0.0756787
Heightened Def Con from 0.0756787 to 0.0756787
Heightened Def Con from 0.0756787 to 0.0756787
Heightened Def Con from 0.0756787 to 0.0756787
Heightened Def Con from 0.0756787 +to 0.0756787
Heightened Def Con from 0.0756809 to 0.0756809
Heightened Def Con from 0.0756809 to 0.0756809
Heightened Def Con from 0.0756838 to 0.0756838
Heightened Def Con from 0.0756838 to 0.0756838
Heightened Def Con from 0.0756838 to 0.0756838
Heightened Def Con from 0.0756838 to 0.0756838
Heightened Def Con from 0.0756838 to 0.0756838
Heightened Def Con from 0.0756838 to 0.0756838
Heightened Def Con from 0.0756838 to 0.0756838
Heightened Def Con from 0.0756839 to 0.0756839
Heightened Def Con from 0.0756868 to 0.0756868
Heightened Def Con from 0.0756868 to 0.0756868
Heightened Def Con from 0.0756868 to 0.0756868
Heightened Def Con from 0.0756868 to 0.0756868
Heightened Def Con from 0.0756868 to 0.0756868
Heightened Def Con from 0.0756912 to 0.0756912
Heightened Def Con from 0.0756912 to 0.0756912
Heightened Def Con from 0.0756912 to 0.0756912
Heightened Def Con from 0.0757054 to 0.0757054
Heightened Def Con from 0.075706 to 0.075706
Heightened Def Con from 0.075706 to 0.075706
Heightened Def Con from 0.075706 to 0.075706
Heightened Def Con from 0.075706 to 0.075706
Heightened Def Con from 0.075706 to 0.075706
Heightened Def Con from 0.075706 to 0.075706
Heightened Def Con from 0.075706 to 0.075706
Heightened Def Con from 0.075706 to 0.075706
Heightened Def Con from 0.075706 to 0.075706
Heightened Def Con from 0.0757091 to 0.0757091
Heightened Def Con from 0.0757091 to 0.0757091
Heightened Def Con from 0.0757091 to 0.0757091
Heightened Def Con from 0.0757091 to 0.0757091
Heightened Def Con from 0.0757122 to 0.0757122
Heightened Def Con from 0.0757122 to 0.0757122
Heightened Def Con from 0.0757122 to 0.0757122
Heightened Def Con from 0.0757123 to 0.0757123
Heightened Def Con from 0.0757667 to 0.0757667
Heightened Def Con from 0.0757689 to 0.0757689
Heightened Def Con from 0.0760874 to 0.0760874
Heightened Def Con from 0.0760874 to 0.0760874
Heightened Def Con from 0.0760874 to 0.0760874
Heightened Def Con from 0.0760874 to 0.0760874
Heightened Def Con from 0.0760874 to 0.0760874
Heightened Def Con from 0.0760881 to 0.0760881
Heightened Def Con from 0.0760881 to 0.0760881
Heightened Def Con from 0.0760881 to 0.0760881
Heightened Def Con from 0.0760881 to 0.0760881
Heightened Def Con from 0.0760881 to 0.0760881
Heightened Def Con from 0.0760881 to 0.0760881
Heightened Def Con from 0.0760881 to 0.0760881
Heightened Def Con from 0.0760881 to 0.0760881
Heightened Def Con from 0.0760916 to 0.0760916
Heightened Def Con from 0.0760916 to 0.0760916
Heightened Def Con from 0.0760916 to 0.0760916
Heightened Def Con from 0.0760916 to 0.0760916
Heightened Def Con from 0.0760917 to 0.0760917
Heightened Def Con from 0.0760917 to 0.0760917
Heightened Def Con from 0.0760917 to 0.0760917
Heightened Def Con from 0.0764816 to 0.0764816
Heightened Def Con from 0.0764817 to 0.0764817
Heightened Def Con from 0.0764818 to 0.0764818
Heightened Def Con from 0.0764819 to 0.0764819
Heightened Def Con from 0.0764821 to 0.0764821
Heightened Def Con from 0.0764821 to 0.0764821
Heightened Def Con from 0.0764821 to 0.0764821
Heightened Def Con from 0.0764821 to 0.0764821
Heightened Def Con from 0.0764821 to 0.0764821
Heightened Def Con from 0.0765547 to 0.0765547
Heightened Def Con from 0.0765547 to 0.0765547
Heightened Def Con from 0.0765547 to 0.0765547
Heightened Def Con from 0.0765547 to 0.0765547
Heightened Def Con from 0.0766 to 0.0766
Heightened Def Con from 0.0766 to 0.0766
Heightened Def Con from 0.0766001 to 0.0766001
Heightened Def Con from 0.0766011 to 0.0766011
Heightened Def Con from 0.0766011 to 0.0766011
Heightened Def Con from 0.0766011 to 0.0766011
Heightened Def Con from 0.0766012 to 0.0766012
Heightened Def Con from 0.0766012 to 0.0766012
Heightened Def Con from 0.0772732 to 0.0772732
Heightened Def Con from 0.0774273 to 0.0774273
Heightened Def Con from 0.0774302 to 0.0774302
Heightened Def Con from 0.0774302 to 0.0774302
Heightened Def Con from 0.0774302 to 0.0774302
Heightened Def Con from 0.0774304 to 0.0774304
Heightened Def Con from 0.0774304 to 0.0774304
Heightened Def Con from 0.0774304 to 0.0774304
Heightened Def Con from 0.0774363 to 0.0774363
Heightened Def Con from 0.0774364 to 0.0774364
Heightened Def Con from 0.0774364 to 0.0774364
Heightened Def Con from 0.0774364 to 0.0774364
Heightened Def Con from 0.0774364 to 0.0774364
Heightened Def Con from 0.0774364 to 0.0774364
Heightened Def Con from 0.0774364 to 0.0774364
Heightened Def Con from 0.0774364 to 0.0774364
Heightened Def Con from 0.0774364 +to 0.0774364
Heightened Def Con from 0.0774364 to 0.0774364
Heightened Def Con from 0.0774364 to 0.0774364
Heightened Def Con from 0.0774364 to 0.0774364
Heightened Def Con from 0.0774364 to 0.0774364
Heightened Def Con from 0.0774364 to 0.0774364
Heightened Def Con from 0.0774364 to 0.0774364
Heightened Def Con from 0.0774364 to 0.0774364
Heightened Def Con from 0.0774365 to 0.0774365
Heightened Def Con from 0.0774365 to 0.0774365
Heightened Def Con from 0.0774365 to 0.0774365
Heightened Def Con from 0.0774365 to 0.0774365
Heightened Def Con from 0.0774365 to 0.0774365
Heightened Def Con from 0.0774365 to 0.0774365
Heightened Def Con from 0.0774365 to 0.0774365
Heightened Def Con from 0.0774365 to 0.0774365
Heightened Def Con from 0.0774365 to 0.0774365
Heightened Def Con from 0.0774365 to 0.0774365
Heightened Def Con from 0.0774365 to 0.0774365
Heightened Def Con from 0.0774365 to 0.0774365
Heightened Def Con from 0.0774365 to 0.0774365
Heightened Def Con from 0.0774365 to 0.0774365
Heightened Def Con from 0.0774365 to 0.0774365
Heightened Def Con from 0.0774366 +to 0.0774366
Heightened Def Con from 0.0774366 to 0.0774366
Heightened Def Con from 0.0774366 to 0.0774366
Heightened Def Con from 0.0774366 to 0.0774366
Heightened Def Con from 0.0774366 to 0.0774366
Heightened Def Con from 0.0774369 +to 0.0774369
Heightened Def Con from 0.0774369 to 0.0774369
Heightened Def Con from 0.0774369 to 0.0774369
Heightened Def Con from 0.0774369 to 0.0774369
Heightened Def Con from 0.0774369 to 0.0774369
Heightened Def Con from 0.0774369 to 0.0774369
Heightened Def Con from 0.0774369 to 0.0774369
Heightened Def Con from 0.0774369 to 0.0774369
Heightened Def Con from 0.0774369 to 0.0774369
Heightened Def Con from 0.0774369 to 0.0774369
Heightened Def Con from 0.0774369 to 0.0774369
Heightened Def Con from 0.0774369 to 0.0774369
Heightened Def Con from 0.0774369 to 0.0774369
Heightened Def Con from 0.0774369 to 0.0774369
Heightened Def Con from 0.0774369 to 0.0774369
Heightened Def Con from 0.0774369 to 0.0774369
Heightened Def Con from 0.0774369 to 0.0774369
Heightened Def Con from 0.0774369 to 0.0774369
Heightened Def Con from 0.0774369 to 0.0774369
Heightened Def Con from 0.0774369 to 0.0774369
Heightened Def Con from 0.0774369 to 0.0774369
Heightened Def Con from 0.0774369 to 0.0774369
Heightened Def Con from 0.077437 to 0.077437
Heightened Def Con from 0.077437 to 0.077437
Heightened Def Con from 0.077437 to 0.077437
Heightened Def Con from 0.0774381 to 0.0774381
Heightened Def Con from 0.0774381 to 0.0774381
Heightened Def Con from 0.0774381 to 0.0774381
Heightened Def Con from 0.0774381 to 0.0774381
Heightened Def Con from 0.0774383 to 0.0774383
Heightened Def Con from 0.0774383 to 0.0774383
Heightened Def Con from 0.0774383 to 0.0774383
Heightened Def Con from 0.0774383 to 0.0774383
Heightened Def Con from 0.0774383 to 0.0774383
Heightened Def Con from 0.0774383 to 0.0774383
Heightened Def Con from 0.0774383 to 0.0774383
Heightened Def Con from 0.0774383 to 0.0774383
Heightened Def Con from 0.0774383 to 0.0774383
Heightened Def Con from 0.0774383 to 0.0774383
Heightened Def Con from 0.0774383 to 0.0774383
Heightened Def Con from 0.0774383 to 0.0774383
Heightened Def Con from 0.0774391 to 0.0774391
Heightened Def Con from 0.0774391 to 0.0774391
Heightened Def Con from 0.092 +++++++++++++++++++to 0.092
Heightened Def Con from 0.092 +++++++++to 0.092

Date: Fri Dec 27 02:13:47 2019
Total elapsed time: 11.449 seconds.

tnom = 27
temp = 27
method = modified trap
totiter = 1903147
traniter = 1903147
tranpoints = 242240
accept = 135230
rejected = 114791
matrix size = 61
fillins = 38
solver = Normal
Matrix Compiler1: 4.59 KB object code size  1.1/0.8/[0.3]
Matrix Compiler2: 4.96 KB object code size  0.5/0.9/[0.3]

